*SOIL-PLANT-ATMOSPHERE MODULE OUTPUT FILE

*DSSAT Cropping System Model Ver. 4.7.2.000 -release      OCT 15, 2021; 17:59:34
                                                                                
*RUN   1        :             CSM335_date_1 MZCER047 ITSA1301    1              
 MODEL          : MZCER047 - Maize                                              
 EXPERIMENT     : ITSA1301 SG CALIBRATION SETUP OF SORGHUM SOWING DATES         
 DATA PATH      :                                                               
 TREATMENT  1   :             CSM335_date_1 MZCER047                            
  
!                                                                                                                                                Soil evaporation (mm/d) by soil depth (cm):
!                                                                                                                                                0-5    5-15   15-30   30-60   60-90  90-120
@YEAR DOY   DAS   SRAA  TMAXA  TMINA   EOAA   EOPA   EOSA   ETAA   EPAA   ESAA   EFAA   EMAA    EOAC    ETAC    EPAC    ESAC    EFAC    EMAC    ES1D    ES2D    ES3D    ES4D    ES5D    ES6D   TRWUD
 2010 150     1  24.39  36.90  22.00  6.986  0.000  6.986  0.837  0.000  0.837  0.000  0.000    6.99    0.84    0.00    0.84    0.00    0.00   0.701   0.089   0.027   0.013   0.005   0.002   0.000
 2010 151     2  20.94  36.00  25.25  5.790  0.000  5.790  5.613  0.000  5.613  0.000  0.000   12.78    6.45    0.00    6.45    0.00    0.00   1.525   1.159   0.927   0.946   0.589   0.466   0.000
 2010 152     3   9.45  36.40  18.50  2.781  0.000  2.781  2.781  0.000  2.781  0.000  0.000   15.56    9.23    0.00    9.23    0.00    0.00   0.801   0.572   0.475   0.479   0.253   0.200   0.000
 2010 153     4  17.79  35.25  23.50  5.025  0.000  5.025  5.025  0.000  5.025  0.000  0.000   20.58   14.26    0.00   14.26    0.00    0.00   1.319   0.991   0.838   0.975   0.517   0.385   0.000
 2010 154     5  22.99  34.50  25.00  6.234  0.000  6.234  5.723  0.000  5.723  0.000  0.000   26.81   19.98    0.00   19.98    0.00    0.00   1.392   1.119   0.957   1.153   0.647   0.455   0.000
 2010 155     6  13.90  33.80  24.50  3.662  0.000  3.662  0.972  0.000  0.972  0.000  0.000   30.48   20.95    0.00   20.95    0.00    0.00   0.793   0.117   0.036   0.018   0.005   0.002   0.000
 2010 156     7  20.44  33.75  24.25  5.316  0.009  5.306  0.909  0.009  0.900  0.000  0.000   35.79   21.86    0.01   21.85    0.00    0.00   0.722   0.116   0.036   0.018   0.005   0.002   0.001
 2010 157     8  25.92  35.50  23.50  6.913  0.023  6.890  0.857  0.023  0.833  0.000  0.000   42.71   22.72    0.03   22.68    0.00    0.00   0.656   0.116   0.036   0.018   0.005   0.002   0.002
 2010 158     9  23.54  37.40  21.50  6.785  0.036  6.750  1.047  0.036  1.011  0.000  0.000   49.49   23.76    0.07   23.69    0.00    0.00   0.831   0.119   0.036   0.018   0.005   0.002   0.004
 2010 159    10  22.78  36.25  23.00  6.619  0.048  6.570  5.784  0.048  5.737  0.000  0.000   56.11   29.55    0.12   29.43    0.00    0.00   1.480   1.105   0.924   1.138   0.639   0.451   0.005
 2010 160    11  21.59  34.25  25.45  5.787  0.054  5.732  5.787  0.054  5.732  0.000  0.000   61.90   35.33    0.17   35.16    0.00    0.00   1.566   1.173   0.906   1.073   0.598   0.416   0.005
 2010 161    12   9.42  25.00  19.50  2.313  0.027  2.285  2.313  0.027  2.285  0.000  0.000   64.21   37.65    0.20   37.45    0.00    0.00   0.677   0.466   0.356   0.406   0.228   0.152   0.003
 2010 162    13  25.57  29.50  22.00  6.798  0.112  6.685  6.327  0.112  6.215  0.000  0.000   71.01   43.97    0.31   43.66    0.00    0.00   1.675   1.201   0.986   1.177   0.735   0.440   0.011
 2010 163    14  24.67  34.50  23.00  6.617  0.154  6.462  6.042  0.154  5.888  0.000  0.000   77.63   50.02    0.46   49.55    0.00    0.00   1.439   1.121   0.957   1.158   0.777   0.436   0.015
 2010 164    15  18.59  35.50  25.20  5.126  0.163  4.961  1.156  0.163  0.993  0.000  0.000   82.75   51.17    0.63   50.55    0.00    0.00   0.814   0.117   0.036   0.018   0.006   0.002   0.016
 2010 165    16  24.21  35.45  23.50  6.505  0.271  6.230  1.184  0.271  0.913  0.000  0.000   89.26   52.36    0.90   51.46    0.00    0.00   0.734   0.116   0.036   0.018   0.006   0.002   0.027
 2010 166    17  24.20  34.00  25.00  6.273  0.342  5.926  1.177  0.342  0.835  0.000  0.000   95.53   53.53    1.24   52.29    0.00    0.00   0.658   0.115   0.036   0.018   0.006   0.002   0.034
 2010 167    18  26.12  34.75  25.00  6.752  0.458  6.289  1.221  0.458  0.763  0.000  0.000  102.28   54.75    1.70   53.06    0.00    0.00   0.588   0.113   0.036   0.018   0.006   0.002   0.046
 2010 168    19   9.41  31.80  20.50  2.268  0.188  2.078  1.265  0.188  1.077  0.000  0.000  104.55   56.02    1.89   54.13    0.00    0.00   0.895   0.119   0.036   0.018   0.006   0.002   0.019
 2010 169    20  21.67  31.25  23.50  5.781  0.533  5.243  5.776  0.533  5.243  0.000  0.000  110.33   61.80    2.42   59.38    0.00    0.00   1.391   0.978   0.824   1.003   0.670   0.376   0.053
 2010 170    21  24.33  34.50  23.25  6.468  0.689  5.771  1.782  0.689  1.093  0.000  0.000  116.80   63.58    3.11   60.47    0.00    0.00   0.914   0.117   0.036   0.018   0.006   0.002   0.069
 2010 171    22  24.33  35.00  24.50  6.466  0.795  5.662  1.786  0.795  0.992  0.000  0.000  123.26   65.36    3.90   61.46    0.00    0.00   0.815   0.115   0.035   0.018   0.006   0.002   0.079
 2010 172    23  23.44  35.50  25.00  6.345  0.903  5.433  1.892  0.903  0.989  0.000  0.000  129.61   67.26    4.81   62.45    0.00    0.00   0.814   0.113   0.035   0.018   0.006   0.002   0.090
 2010 173    24  18.71  34.75  22.00  4.866  0.797  4.063  1.783  0.797  0.986  0.000  0.000  134.48   69.04    5.60   63.43    0.00    0.00   0.814   0.111   0.035   0.018   0.006   0.002   0.080
 2010 174    25  20.04  34.75  21.50  5.135  0.944  4.182  1.839  0.944  0.895  0.000  0.000  139.61   70.88    6.55   64.33    0.00    0.00   0.726   0.109   0.034   0.018   0.006   0.002   0.094
 2010 175    26  22.69  35.50  25.50  6.091  1.242  4.832  6.074  1.242  4.832  0.000  0.000  145.70   76.95    7.79   69.16    0.00    0.00   1.219   0.971   0.762   0.923   0.616   0.341   0.124
 2010 176    27   9.40  34.00  18.50  2.473  0.562  1.901  2.462  0.562  1.901  0.000  0.000  148.17   79.41    8.35   71.06    0.00    0.00   0.499   0.374   0.296   0.355   0.243   0.135   0.056
 2010 177    28  20.18  34.50  22.50  5.350  1.330  4.003  5.333  1.330  4.003  0.000  0.000  153.52   84.75    9.68   75.07    0.00    0.00   1.027   0.763   0.627   0.760   0.528   0.298   0.133
 2010 178    29  12.95  31.25  21.00  3.249  0.887  2.352  3.239  0.887  2.352  0.000  0.000  156.77   87.99   10.57   77.42    0.00    0.00   0.630   0.472   0.364   0.426   0.293   0.166   0.089
 2010 179    30  24.32  31.50  23.25  6.433  1.901  4.519  6.420  1.901  4.519  0.000  0.000  163.21   94.41   12.47   81.94    0.00    0.00   1.171   0.883   0.697   0.826   0.574   0.369   0.190
 2010 180    31  22.85  33.75  23.50  5.987  1.913  4.062  5.975  1.913  4.062  0.000  0.000  169.19  100.38   14.38   86.00    0.00    0.00   1.042   0.764   0.620   0.745   0.521   0.369   0.191
 2010 181    32  17.83  33.50  21.50  4.624  1.591  3.016  4.607  1.591  3.016  0.000  0.000  173.82  104.99   15.97   89.01    0.00    0.00   0.749   0.552   0.465   0.569   0.399   0.282   0.159
 2010 182    33  16.79  33.50  20.00  4.247  1.561  2.663  2.662  1.561  1.102  0.000  0.000  178.06  107.65   17.53   90.12    0.00    0.00   0.920   0.119   0.036   0.018   0.007   0.003   0.156
 2010 183    34  17.09  31.50  22.00  4.249  1.661  2.559  2.659  1.661  0.999  0.000  0.000  182.31  110.31   19.20   91.11    0.00    0.00   0.820   0.116   0.035   0.018   0.007   0.003   0.166
 2010 184    35  16.80  31.25  21.50  4.114  1.723  2.378  2.627  1.723  0.904  0.000  0.000  186.43  112.94   20.92   92.02    0.00    0.00   0.728   0.114   0.035   0.018   0.007   0.003   0.172
 2010 185    36  24.79  33.50  21.50  6.170  2.730  3.416  3.547  2.730  0.817  0.000  0.000  192.60  116.48   23.65   92.84    0.00    0.00   0.645   0.111   0.034   0.018   0.007   0.003   0.273
 2010 186    37  21.25  35.25  23.50  5.481  2.563  2.889  3.291  2.563  0.727  0.000  0.000  198.08  119.77   26.21   93.56    0.00    0.00   0.560   0.107   0.033   0.018   0.007   0.003   0.256
 2010 187    38  19.77  35.00  22.45  4.972  2.457  2.478  3.121  2.457  0.664  0.000  0.000  203.05  122.89   28.67   94.23    0.00    0.00   0.501   0.104   0.032   0.017   0.006   0.003   0.246
 2010 188    39  18.44  33.00  22.40  4.526  2.362  2.137  2.974  2.362  0.612  0.000  0.000  207.58  125.87   31.03   94.84    0.00    0.00   0.453   0.101   0.032   0.017   0.006   0.003   0.236
 2010 189    40  18.45  33.50  24.25  4.599  2.526  2.057  3.092  2.526  0.566  0.000  0.000  212.18  128.96   33.56   95.41    0.00    0.00   0.412   0.097   0.031   0.017   0.006   0.003   0.253
 2010 190    41  19.20  34.00  21.50  4.710  2.656  2.042  3.178  2.654  0.524  0.000  0.000  216.89  132.14   36.21   95.93    0.00    0.00   0.374   0.094   0.030   0.017   0.006   0.003   0.265
 2010 191    42  16.98  34.00  19.50  4.101  2.351  1.722  3.153  2.351  0.802  0.000  0.000  220.99  135.29   38.56   96.73    0.00    0.00   0.656   0.091   0.029   0.016   0.006   0.003   0.235
 2010 192    43  21.44  34.50  21.00  5.437  3.179  2.222  5.401  3.179  2.222  0.000  0.000  226.42  140.69   41.74   98.95    0.00    0.00   0.631   0.417   0.314   0.379   0.278   0.203   0.318
 2010 193    44  12.83  31.75  20.50  3.212  1.936  1.269  3.206  1.936  1.269  0.000  0.000  229.64  143.90   43.68  100.22    0.00    0.00   0.365   0.268   0.194   0.202   0.140   0.100   0.194
 2010 194    45  26.06  32.00  21.50  6.595  4.019  2.555  6.575  4.019  2.555  0.000  0.000  236.23  150.47   47.69  102.78    0.00    0.00   0.657   0.492   0.403   0.458   0.313   0.233   0.402
 2010 195    46  21.31  33.50  22.50  5.421  3.370  2.022  5.392  3.370  2.022  0.000  0.000  241.65  155.86   51.06  104.80    0.00    0.00   0.488   0.373   0.314   0.376   0.263   0.208   0.337
 2010 196    47  23.26  34.25  21.50  5.887  3.701  2.128  4.804  3.701  1.103  0.000  0.000  247.54  160.67   54.77  105.90    0.00    0.00   0.918   0.121   0.036   0.018   0.007   0.003   0.370
 2010 197    48  19.99  33.25  24.00  5.063  3.249  1.769  4.302  3.249  1.053  0.000  0.000  252.60  164.97   58.02  106.96    0.00    0.00   0.873   0.117   0.035   0.018   0.007   0.003   0.325
 2010 198    49  20.00  33.00  20.60  4.940  3.235  1.677  4.246  3.235  1.011  0.000  0.000  257.54  169.22   61.25  107.97    0.00    0.00   0.837   0.113   0.034   0.017   0.006   0.003   0.323
 2010 199    50  25.23  32.75  21.75  6.234  4.130  2.058  5.035  4.130  0.905  0.000  0.000  263.78  174.25   65.38  108.87    0.00    0.00   0.736   0.109   0.033   0.017   0.006   0.003   0.413
 2010 200    51  25.39  33.25  23.25  6.342  4.263  2.025  5.199  4.263  0.936  0.000  0.000  270.12  179.45   69.64  109.81    0.00    0.00   0.772   0.105   0.032   0.017   0.006   0.003   0.426
 2010 201    52  12.56  32.00  20.50  3.059  2.082  0.943  3.025  2.082  0.943  0.000  0.000  273.18  182.48   71.73  110.75    0.00    0.00   0.789   0.098   0.030   0.016   0.006   0.003   0.208
 2010 202    53  24.82  30.50  23.00  6.031  4.133  1.826  5.005  4.133  0.872  0.000  0.000  279.21  187.48   75.86  111.62    0.00    0.00   0.718   0.098   0.030   0.016   0.006   0.003   0.413
 2010 203    54  19.30  29.00  21.25  4.538  3.155  1.330  4.485  3.155  1.330  0.000  0.000  283.75  191.97   79.01  112.95    0.00    0.00   0.350   0.242   0.188   0.233   0.175   0.143   0.316
 2010 204    55   9.44  32.00  20.00  2.333  1.644  0.664  2.308  1.644  0.664  0.000  0.000  286.08  194.27   80.66  113.62    0.00    0.00   0.195   0.130   0.101   0.105   0.074   0.059   0.164
 2010 205    56   9.44  27.00  20.00  2.210  1.562  0.620  2.182  1.562  0.620  0.000  0.000  288.29  196.46   82.22  114.24    0.00    0.00   0.171   0.117   0.100   0.106   0.071   0.055   0.156
 2010 206    57  22.03  29.25  20.00  5.273  3.754  1.459  5.213  3.754  1.459  0.000  0.000  293.56  201.67   85.97  115.70    0.00    0.00   0.369   0.268   0.228   0.266   0.184   0.144   0.375
 2010 207    58  18.44  29.50  21.00  4.415  3.189  1.187  4.376  3.189  1.187  0.000  0.000  297.98  206.05   89.16  116.88    0.00    0.00   0.287   0.215   0.184   0.223   0.155   0.123   0.319
 2010 208    59  19.95  30.00  21.25  4.793  3.508  1.252  4.760  3.508  1.252  0.000  0.000  302.77  210.81   92.67  118.13    0.00    0.00   0.318   0.237   0.202   0.224   0.153   0.119   0.351
 2010 209    60  15.60  31.00  20.50  3.827  2.720  1.070  3.790  2.720  1.070  0.000  0.000  306.60  214.60   95.39  119.21    0.00    0.00   0.268   0.200   0.171   0.194   0.133   0.104   0.272
 2010 210    61  14.41  29.50  20.50  3.445  2.447  0.969  3.417  2.447  0.969  0.000  0.000  310.04  218.01   97.84  120.17    0.00    0.00   0.250   0.186   0.158   0.170   0.116   0.090   0.245
 2010 211    62  18.48  32.00  20.70  4.592  3.261  1.300  4.561  3.261  1.300  0.000  0.000  314.64  222.57  101.10  121.47    0.00    0.00   0.327   0.241   0.210   0.236   0.161   0.125   0.326
 2010 212    63  23.00  31.50  20.50  5.634  3.985  1.604  5.589  3.985  1.604  0.000  0.000  320.27  228.16  105.08  123.08    0.00    0.00   0.429   0.291   0.244   0.284   0.199   0.156   0.398
 2010 213    64  21.81  31.00  20.50  5.351  3.787  1.533  5.319  3.787  1.533  0.000  0.000  325.62  233.48  108.87  124.61    0.00    0.00   0.417   0.284   0.240   0.266   0.183   0.143   0.379
 2010 214    65  26.80  31.50  21.00  6.637  4.703  1.913  6.616  4.703  1.913  0.000  0.000  332.26  240.10  113.57  126.52    0.00    0.00   0.497   0.349   0.300   0.342   0.238   0.186   0.470
 2010 215    66  21.53  33.00  21.50  5.408  3.825  1.568  5.394  3.825  1.568  0.000  0.000  337.67  245.49  117.40  128.09    0.00    0.00   0.414   0.282   0.237   0.280   0.198   0.157   0.383
 2010 216    67  21.54  33.50  21.00  5.428  3.805  1.584  5.389  3.805  1.584  0.000  0.000  343.09  250.88  121.20  129.68    0.00    0.00   0.422   0.295   0.250   0.275   0.191   0.151   0.380
 2010 217    68  23.82  30.00  19.25  5.735  3.998  1.685  5.682  3.998  1.685  0.000  0.000  348.83  256.56  125.20  131.36    0.00    0.00   0.419   0.315   0.268   0.304   0.212   0.167   0.400
 2010 218    69  18.53  31.50  19.25  4.490  3.108  1.358  4.465  3.108  1.358  0.000  0.000  353.32  261.03  128.31  132.72    0.00    0.00   0.353   0.263   0.213   0.236   0.163   0.129   0.311
 2010 219    70  23.69  31.75  20.50  5.876  4.067  1.785  5.853  4.067  1.785  0.000  0.000  359.19  266.88  132.38  134.50    0.00    0.00   0.489   0.353   0.275   0.300   0.206   0.161   0.407
 2010 220    71  20.82  30.80  19.50  5.072  3.499  1.551  5.050  3.499  1.551  0.000  0.000  364.27  271.93  135.88  136.05    0.00    0.00   0.400   0.289   0.240   0.277   0.193   0.151   0.350
 2010 221    72   9.45  29.50  21.25  2.283  1.566  0.703  2.269  1.566  0.703  0.000  0.000  366.55  274.20  137.44  136.76    0.00    0.00   0.172   0.129   0.109   0.130   0.091   0.072   0.157
 2010 222    73  17.04  30.25  21.50  4.137  2.823  1.284  4.108  2.823  1.284  0.000  0.000  370.69  278.31  140.26  138.04    0.00    0.00   0.308   0.233   0.198   0.243   0.169   0.134   0.282
 2010 223    74  11.28  29.25  19.75  2.668  1.814  0.836  2.650  1.814  0.836  0.000  0.000  373.35  280.96  142.08  138.88    0.00    0.00   0.218   0.150   0.125   0.153   0.106   0.084   0.181
 2010 224    75  17.05  28.50  20.50  4.070  2.764  1.289  4.053  2.764  1.289  0.000  0.000  377.42  285.01  144.84  140.17    0.00    0.00   0.330   0.231   0.194   0.238   0.165   0.131   0.276
 2010 225    76  24.05  30.00  21.00  5.810  3.902  1.862  5.764  3.902  1.862  0.000  0.000  383.23  290.77  148.74  142.03    0.00    0.00   0.456   0.336   0.283   0.348   0.245   0.194   0.390
 2010 226    77  11.73  30.25  21.00  2.831  1.898  0.920  2.818  1.898  0.920  0.000  0.000  386.06  293.59  150.64  142.95    0.00    0.00   0.227   0.168   0.143   0.176   0.117   0.089   0.190
 2010 227    78  19.80  28.75  19.00  4.720  3.157  1.557  4.714  3.157  1.557  0.000  0.000  390.79  298.30  153.80  144.51    0.00    0.00   0.381   0.284   0.242   0.299   0.200   0.152   0.316
 2010 228    79  26.51  30.00  18.60  6.314  4.178  2.116  6.293  4.178  2.116  0.000  0.000  397.10  304.60  157.98  146.62    0.00    0.00   0.505   0.384   0.327   0.404   0.278   0.217   0.418
 2010 229    80  18.75  32.50  21.00  4.642  3.044  1.583  4.627  3.044  1.583  0.000  0.000  401.74  309.22  161.02  148.20    0.00    0.00   0.401   0.301   0.252   0.284   0.194   0.151   0.304
 2010 230    81  21.65  32.00  17.50  5.298  3.411  1.846  5.257  3.411  1.846  0.000  0.000  407.04  314.48  164.43  150.05    0.00    0.00   0.464   0.348   0.292   0.333   0.230   0.180   0.341
 2010 231    82  25.01  32.25  20.00  6.172  3.929  2.198  6.127  3.929  2.198  0.000  0.000  413.21  320.61  168.36  152.25    0.00    0.00   0.530   0.404   0.342   0.409   0.287   0.225   0.393
 2010 232    83  25.78  32.25  20.50  6.352  3.992  2.320  6.313  3.992  2.320  0.000  0.000  419.56  326.92  172.35  154.57    0.00    0.00   0.541   0.426   0.363   0.438   0.309   0.244   0.399
 2010 233    84  11.72  31.50  19.00  2.826  1.747  1.062  2.809  1.747  1.062  0.000  0.000  422.39  329.73  174.10  155.63    0.00    0.00   0.278   0.202   0.160   0.188   0.131   0.103   0.175
 2010 234    85  18.60  30.95  19.50  4.591  2.788  1.776  4.563  2.788  1.776  0.000  0.000  426.98  334.29  176.89  157.41    0.00    0.00   0.463   0.333   0.267   0.319   0.221   0.173   0.279
 2010 235    86  23.95  30.25  21.00  5.851  3.477  2.334  5.811  3.477  2.334  0.000  0.000  432.83  340.11  180.37  159.74    0.00    0.00   0.572   0.429   0.358   0.434   0.303   0.239   0.348
 2010 236    87  17.22  30.25  20.75  4.174  2.426  1.723  3.577  2.426  1.151  0.000  0.000  437.00  343.68  182.79  160.89    0.00    0.00   0.965   0.122   0.036   0.018   0.007   0.003   0.243
 2010 237    88  23.80  30.25  20.00  5.730  3.253  2.452  4.332  3.253  1.079  0.000  0.000  442.73  348.01  186.04  161.97    0.00    0.00   0.895   0.121   0.035   0.018   0.006   0.003   0.325
 2010 238    89  21.04  32.25  21.00  5.186  2.857  2.306  5.163  2.857  2.306  0.000  0.000  447.92  353.18  188.90  164.28    0.00    0.00   0.590   0.454   0.347   0.411   0.283   0.222   0.286
 2010 239    90  15.53  31.50  18.75  3.865  2.042  1.797  3.838  2.042  1.797  0.000  0.000  451.79  357.02  190.94  166.07    0.00    0.00   0.465   0.343   0.271   0.322   0.222   0.174   0.204
 2010 240    91  23.18  30.75  20.50  5.712  2.905  2.773  5.678  2.905  2.773  0.000  0.000  457.50  362.69  193.85  168.85    0.00    0.00   0.744   0.549   0.413   0.477   0.331   0.260   0.290
 2010 241    92  21.34  31.25  19.25  5.340  2.597  2.720  5.316  2.597  2.720  0.000  0.000  462.84  368.01  196.44  171.56    0.00    0.00   0.692   0.521   0.412   0.488   0.340   0.267   0.260
 2010 242    93  25.62  32.00  20.50  6.411  2.952  3.432  6.384  2.952  3.432  0.000  0.000  469.25  374.39  199.40  175.00    0.00    0.00   0.829   0.636   0.527   0.640   0.447   0.353   0.295
 2010 243    94  17.19  31.25  19.75  4.214  1.813  2.385  4.197  1.813  2.385  0.000  0.000  473.46  378.59  201.21  177.38    0.00    0.00   0.614   0.466   0.366   0.420   0.291   0.228   0.181
 2010 244    95  14.88  31.00  20.00  3.764  1.622  2.130  3.753  1.622  2.130  0.000  0.000  477.23  382.34  202.83  179.51    0.00    0.00   0.585   0.432   0.328   0.355   0.242   0.188   0.162
 2010 245    96  18.55  30.50  20.00  4.668  2.004  2.642  4.646  2.004  2.642  0.000  0.000  481.89  386.99  204.84  182.15    0.00    0.00   0.719   0.495   0.407   0.460   0.316   0.245   0.200
 2010 246    97  15.48  29.75  19.75  3.828  1.646  2.167  3.813  1.646  2.167  0.000  0.000  485.72  390.80  206.48  184.32    0.00    0.00   0.577   0.415   0.343   0.374   0.257   0.200   0.165
 2010 247    98  13.94  28.50  19.00  3.407  1.465  1.928  3.393  1.465  1.928  0.000  0.000  489.13  394.20  207.95  186.25    0.00    0.00   0.481   0.362   0.304   0.349   0.242   0.189   0.146
 2010 248    99  18.98  29.75  21.25  4.685  2.021  2.652  4.672  2.021  2.652  0.000  0.000  493.81  398.87  209.97  188.90    0.00    0.00   0.638   0.487   0.414   0.495   0.345   0.272   0.202
 2010 249   100   9.32  33.50  19.00  2.334  1.004  1.321  2.325  1.004  1.321  0.000  0.000  496.15  401.19  210.97  190.22    0.00    0.00   0.328   0.248   0.211   0.245   0.164   0.126   0.100
 2010 250   101  15.74  26.75  19.50  3.793  1.626  2.147  3.773  1.626  2.147  0.000  0.000  499.94  404.97  212.60  192.37    0.00    0.00   0.531   0.398   0.339   0.401   0.270   0.209   0.163
 2010 251   102  21.09  30.70  20.50  5.234  2.254  2.962  5.216  2.254  2.962  0.000  0.000  505.18  410.18  214.85  195.33    0.00    0.00   0.791   0.539   0.449   0.531   0.367   0.285   0.225
 2010 252   103  14.03  30.00  20.50  3.519  1.523  1.991  3.514  1.523  1.991  0.000  0.000  508.69  413.70  216.37  197.32    0.00    0.00   0.568   0.361   0.291   0.344   0.240   0.188   0.152
 2010 253   104  23.51  30.00  20.00  5.886  2.530  3.331  5.861  2.530  3.331  0.000  0.000  514.58  419.56  218.90  200.65    0.00    0.00   0.859   0.608   0.502   0.605   0.423   0.334   0.253
 2010 254   105  24.56  31.00  20.50  6.094  2.621  3.449  6.070  2.621  3.449  0.000  0.000  520.67  425.63  221.53  204.10    0.00    0.00   0.833   0.626   0.531   0.647   0.453   0.358   0.262
 2010 255   106  23.01  31.75  21.25  5.732  2.469  3.244  5.713  2.469  3.244  0.000  0.000  526.40  431.34  223.99  207.35    0.00    0.00   0.855   0.610   0.485   0.576   0.403   0.315   0.247
 2010 256   107  17.33  31.00  19.25  4.352  1.883  2.463  4.346  1.883  2.463  0.000  0.000  530.76  435.69  225.88  209.81    0.00    0.00   0.635   0.460   0.370   0.445   0.311   0.243   0.188
 2010 257   108  17.93  29.50  21.50  4.413  1.906  2.497  4.404  1.906  2.497  0.000  0.000  535.17  440.09  227.78  212.31    0.00    0.00   0.681   0.470   0.369   0.436   0.303   0.239   0.191
 2010 258   109  24.78  29.50  20.50  6.187  2.658  3.501  6.159  2.658  3.501  0.000  0.000  541.36  446.25  230.44  215.81    0.00    0.00   0.947   0.660   0.535   0.630   0.414   0.315   0.266
 2010 259   110  17.58  34.50  18.50  4.555  1.967  2.578  4.545  1.967  2.578  0.000  0.000  545.91  450.79  232.41  218.39    0.00    0.00   0.625   0.474   0.405   0.492   0.329   0.252   0.197
 2010 260   111   9.33  30.75  21.50  2.327  1.002  1.317  2.319  1.002  1.317  0.000  0.000  548.24  453.11  233.41  219.70    0.00    0.00   0.334   0.239   0.201   0.243   0.169   0.131   0.100
 2010 261   112  15.41  28.50  19.20  3.735  1.610  2.114  3.724  1.610  2.114  0.000  0.000  551.97  456.84  235.02  221.82    0.00    0.00   0.529   0.380   0.321   0.393   0.275   0.216   0.161
 2010 262   113  21.32  31.00  20.50  5.283  2.272  2.990  5.262  2.272  2.990  0.000  0.000  557.26  462.10  237.29  224.81    0.00    0.00   0.763   0.535   0.450   0.551   0.386   0.304   0.227
 2010 263   114  20.99  31.50  19.50  5.220  2.250  2.954  5.204  2.250  2.954  0.000  0.000  562.48  467.30  239.54  227.76    0.00    0.00   0.807   0.526   0.434   0.527   0.369   0.290   0.225
 2010 264   115  23.85  31.50  19.50  5.993  2.583  3.392  5.975  2.583  3.392  0.000  0.000  568.47  473.28  242.13  231.15    0.00    0.00   0.866   0.610   0.512   0.623   0.437   0.344   0.258
 2010 265   116  24.12  32.00  19.50  5.984  2.581  3.387  5.968  2.581  3.387  0.000  0.000  574.45  479.25  244.71  234.54    0.00    0.00   0.915   0.630   0.501   0.598   0.417   0.326   0.258
 2010 266   117  23.18  32.50  20.00  5.945  2.559  3.364  5.923  2.559  3.364  0.000  0.000  580.40  485.17  247.27  237.90    0.00    0.00   0.868   0.625   0.506   0.609   0.425   0.332   0.256
 2010 267   118  24.06  32.50  20.50  6.059  2.606  3.429  6.035  2.606  3.429  0.000  0.000  586.46  491.20  249.87  241.33    0.00    0.00   0.884   0.629   0.515   0.623   0.434   0.343   0.261
 2010 268   119  23.26  33.25  19.50  5.888  2.537  3.333  5.870  2.537  3.333  0.000  0.000  592.34  497.07  252.41  244.66    0.00    0.00   0.827   0.608   0.511   0.620   0.428   0.339   0.254
 2010 269   120  25.19  33.50  22.00  6.434  2.772  3.641  3.872  2.772  1.100  0.000  0.000  598.78  500.95  255.18  245.76    0.00    0.00   0.919   0.119   0.036   0.018   0.006   0.003   0.277
 2010 270   121  25.61  33.75  21.50  6.486  2.803  3.671  3.805  2.803  1.002  0.000  0.000  605.26  504.75  257.98  246.77    0.00    0.00   0.824   0.116   0.035   0.018   0.006   0.003   0.280
 2010 271   122  13.50  32.00  19.50  3.287  1.417  1.860  2.442  1.417  1.025  0.000  0.000  608.55  507.19  259.40  247.79    0.00    0.00   0.850   0.114   0.034   0.017   0.006   0.003   0.142
 2010 272   123  14.98  30.25  19.25  3.613  1.556  2.045  2.665  1.556  1.109  0.000  0.000  612.16  509.86  260.96  248.90    0.00    0.00   0.935   0.113   0.034   0.017   0.006   0.003   0.156
 2010 273   124  24.73  32.00  19.50  6.099  2.628  3.452  3.699  2.628  1.072  0.000  0.000  618.26  513.56  263.58  249.97    0.00    0.00   0.899   0.113   0.034   0.017   0.006   0.003   0.263
 2010 274   125  23.18  34.00  20.50  5.837  2.508  3.303  3.484  2.508  0.976  0.000  0.000  624.10  517.04  266.09  250.95    0.00    0.00   0.806   0.111   0.033   0.017   0.006   0.003   0.251
 2010 275   126  13.39  33.25  18.75  3.282  1.410  1.857  2.540  1.410  1.130  0.000  0.000  627.38  519.58  267.50  252.08    0.00    0.00   0.955   0.116   0.033   0.017   0.006   0.003   0.141
 2010 276   127  24.75  30.50  19.00  6.078  2.618  3.440  6.058  2.618  3.440  0.000  0.000  633.46  525.64  270.12  255.52    0.00    0.00   0.903   0.649   0.501   0.618   0.428   0.340   0.262
 2010 277   128  23.80  33.50  19.50  5.977  2.573  3.383  3.674  2.573  1.101  0.000  0.000  639.44  529.31  272.69  256.62    0.00    0.00   0.925   0.117   0.033   0.016   0.006   0.003   0.257
 2010 278   129  22.41  33.25  19.50  5.571  2.390  3.153  3.393  2.390  1.003  0.000  0.000  645.01  532.71  275.08  257.62    0.00    0.00   0.830   0.115   0.032   0.016   0.006   0.003   0.239
 2010 279   130  20.88  31.00  20.25  5.059  2.173  2.863  3.133  2.173  0.960  0.000  0.000  650.07  535.84  277.26  258.58    0.00    0.00   0.790   0.113   0.032   0.016   0.006   0.003   0.217
 2010 280   131  14.73  32.25  20.50  3.626  1.565  2.052  2.652  1.565  1.087  0.000  0.000  653.69  538.49  278.82  259.67    0.00    0.00   0.916   0.116   0.031   0.016   0.006   0.003   0.157
 2010 281   132  16.34  30.25  20.25  4.004  1.729  2.266  3.995  1.729  2.266  0.000  0.000  657.70  542.49  280.55  261.94    0.00    0.00   0.634   0.435   0.317   0.391   0.272   0.217   0.173
 2010 282   133  21.49  31.25  20.50  5.372  2.318  3.040  5.358  2.318  3.040  0.000  0.000  663.07  547.85  282.87  264.98    0.00    0.00   0.822   0.596   0.436   0.526   0.367   0.293   0.232
 2010 283   134  23.81  33.75  20.50  6.038  2.606  3.417  3.706  2.606  1.100  0.000  0.000  669.11  551.55  285.48  266.08    0.00    0.00   0.927   0.118   0.031   0.015   0.006   0.003   0.261
 2010 284   135  13.27  28.50  21.00  3.168  1.358  1.793  2.359  1.358  1.001  0.000  0.000  672.28  553.91  286.83  267.08    0.00    0.00   0.832   0.116   0.030   0.015   0.005   0.003   0.136
 2010 285   136  21.20  31.75  21.00  5.208  2.250  2.948  5.198  2.250  2.948  0.000  0.000  677.48  559.11  289.08  270.02    0.00    0.00   0.725   0.575   0.466   0.563   0.355   0.265   0.225
 2010 286   137  15.85  33.00  18.50  4.049  1.744  2.292  4.036  1.744  2.292  0.000  0.000  681.53  563.14  290.83  272.32    0.00    0.00   0.562   0.424   0.362   0.442   0.287   0.216   0.174
 2010 287   138  17.28  31.50  22.00  4.365  1.881  2.470  4.351  1.881  2.470  0.000  0.000  685.90  567.50  292.71  274.79    0.00    0.00   0.622   0.466   0.398   0.458   0.300   0.226   0.188
 2010 288   139   8.59  32.50  21.50  2.231  0.963  1.263  2.226  0.963  1.263  0.000  0.000  688.13  569.72  293.67  276.05    0.00    0.00   0.312   0.235   0.200   0.233   0.159   0.123   0.096
 2010 289   140   8.56  32.25  18.05  2.124  0.920  1.202  2.122  0.920  1.202  0.000  0.000  690.25  571.84  294.59  277.25    0.00    0.00   0.289   0.220   0.188   0.226   0.157   0.123   0.092
 2010 290   141  18.47  33.75  21.00  4.720  2.029  2.671  4.701  2.029  2.671  0.000  0.000  694.97  576.54  296.62  279.92    0.00    0.00   0.638   0.484   0.413   0.504   0.354   0.277   0.203
 2010 291   142  21.92  34.50  20.50  5.596  2.408  3.167  3.506  2.408  1.098  0.000  0.000  700.57  580.05  299.03  281.02    0.00    0.00   0.913   0.120   0.036   0.018   0.007   0.003   0.241
 2010 292   143  23.04  33.75  21.75  5.843  2.513  3.307  3.515  2.513  1.002  0.000  0.000  706.41  583.57  301.54  282.02    0.00    0.00   0.820   0.118   0.036   0.018   0.007   0.003   0.251
 2010 293   144  16.88  33.75  21.00  4.230  1.817  2.394  2.731  1.817  0.914  0.000  0.000  710.64  586.30  303.36  282.94    0.00    0.00   0.735   0.116   0.035   0.018   0.007   0.003   0.182
 2010 294   145  20.17  35.25  19.50  5.107  2.196  2.890  3.033  2.196  0.838  0.000  0.000  715.75  589.33  305.55  283.77    0.00    0.00   0.660   0.115   0.035   0.018   0.007   0.003   0.220
 2010 295   146  21.42  33.50  18.50  5.199  2.245  2.942  3.011  2.245  0.766  0.000  0.000  720.95  592.34  307.80  284.54    0.00    0.00   0.591   0.113   0.035   0.018   0.006   0.003   0.224
 2010 296   147  22.81  34.80  19.50  5.624  2.432  3.183  3.135  2.432  0.703  0.000  0.000  726.57  595.47  310.23  285.24    0.00    0.00   0.531   0.111   0.034   0.018   0.006   0.003   0.243
