*SIMULATION OVERVIEW FILE

*DSSAT Cropping System Model Ver. 4.7.2.000 -release      OCT 15, 2021; 17:59:34
                                                                                
*RUN   1        :             CSM335_date_1 MZCER047 ITSA1301    1              
 MODEL          : MZCER047 - Maize                                              
 EXPERIMENT     : ITSA1301 SG CALIBRATION SETUP OF SORGHUM SOWING DATES         
 DATA PATH      :                                                               
 TREATMENT  1   :             CSM335_date_1 MZCER047                            
                                                                                
                                                                                
 CROP           : Maize            CULTIVAR : APPOLO(Mali)     ECOTYPE :IB0005  
 STARTING DATE  : MAY 30 2010                                                   
 PLANTING DATE  : MAY 31 2010        PLANTS/m2 :  6.2     ROW SPACING :  75.cm  
 HARVEST DATE   : OCT 23 2010                                                   
 WEATHER        : MANT   2010                                                   
 SOIL           : XXMANT0101     TEXTURE : SL    -                              
 SOIL INITIAL C : DEPTH:120cm EXTR. H2O:159.6mm  NO3: 33.3kg/ha  NH4: 12.0kg/ha 
 WATER BALANCE  : RAINFED                                                       
 IRRIGATION     : NOT IRRIGATED                                                 
 NITROGEN BAL.  : SOIL-N & N-UPTAKE SIMULATION; NO N-FIXATION                   
 N-FERTILIZER   :       85 kg/ha IN     2 APPLICATIONS                          
 RESIDUE/MANURE : INITIAL :     0 kg/ha ;    3000 kg/ha IN     1 APPLICATIONS   
 ENVIRONM. OPT. : DAYL=    0.00  SRAD=    0.00  TMAX=    0.00  TMIN=    0.00    
                  RAIN=    0.00  CO2 =    0.00  DEW =    0.00  WIND=    0.00    
 SIMULATION OPT : WATER   :Y  NITROGEN:Y  N-FIX:N  PHOSPH :N  PESTS  :N         
                  PHOTO   :R  ET      :R  INFIL:S  HYDROL :R  SOM    :P         
                  CO2 390ppm  NSWIT   :1  EVAP :S  SOIL   :2  STEMP  :D         
 MANAGEMENT OPT : PLANTING:R  IRRIG   :N  FERT :R  RESIDUE:N  HARVEST:R         
                  WEATHER :M  TILLAGE :N                                        
                                                                                
*SUMMARY OF SOIL AND GENETIC INPUT PARAMETERS                                   
                                                                                
   SOIL LOWER UPPER   SAT  EXTR  INIT   ROOT   BULK     pH    NO3    NH4    ORG 
  DEPTH LIMIT LIMIT    SW    SW    SW   DIST   DENS                          C  
   cm   cm3/cm3    cm3/cm3    cm3/cm3         g/cm3         ugN/g  ugN/g     %  
------------------------------------------------------------------------------- 
  0-  5 0.116 0.249 0.445 0.133 0.190   1.00   1.66   5.00   1.67   0.60   1.20 
  5- 15 0.116 0.249 0.445 0.133 0.190   1.00   1.66   5.00   1.67   0.60   1.20 
 15- 30 0.116 0.249 0.445 0.133 0.190   1.00   1.66   5.00   1.67   0.60   1.20 
 30- 60 0.116 0.249 0.445 0.133 0.190   1.00   1.66   5.00   1.67   0.60 -99.00 
 60- 90 0.116 0.249 0.445 0.133 0.190   1.00   1.66   5.00   1.67   0.60 -99.00 
 90-120 0.116 0.249 0.445 0.133 0.190   1.00   1.66   5.00   1.67   0.60 -99.00 
                                                                                
TOT-120  13.9  29.9  53.4  16.0  22.8  <--cm   -  kg/ha-->   33.3   12.0  59760 
SOIL ALBEDO    : 0.30      EVAPORATION LIMIT : 6.00         MIN. FACTOR  : 1.00 
RUNOFF CURVE # :30.00      DRAINAGE RATE     : 0.60         FERT. FACTOR : 1.00 
                                                                                
 Maize      CULTIVAR :IM0008-APPOLO(Mali)       ECOTYPE :IB0005                 
 P1     : 200.00  P2     : 0.3000  P5     : 660.00                              
 G2     : 525.00  G3     :  8.000  PHINT  : 74.900                              


*SIMULATED CROP AND SOIL STATUS AT MAIN DEVELOPMENT STAGES

 RUN NO.     1                 CSM335_date_

        CROP GROWTH     BIOMASS         LEAF   CROP N     STRESS      STRESS                                           
   DATE  AGE STAGE        kg/ha    LAI   NUM  kg/ha  %   H2O  Nitr Phos1 Phos2  RSTG                                   
 ------  --- ----------   -----  -----  ----  ---  ---  ----  ----  ----  ----  ----                                   
 30 MAY    0 Start Sim        0   0.00   0.0    0  0.0  0.00  0.00  0.00  0.00     7
 31 MAY    0 Sowing           0   0.00   0.0    0  0.0  0.00  0.00  0.00  0.00     8
  1 JUN    1 Germinate        0   0.00   0.0    0  0.0  0.00  0.00  0.00  0.00     9
  4 JUN    4 Emergence       25   0.00   1.9    1  4.4  0.00  0.01  0.00  0.00     1
 14 JUN   14 End Juveni      39   0.08   5.4    1  3.2  0.00  0.00  0.00  0.00     2
 19 JUN   19 Floral Ini      90   0.19   6.8    3  3.6  0.00  0.00  0.00  0.00     3
 27 JUL   57 75% Silkin    3881   1.86  14.4   77  2.0  0.00  0.00  0.00  0.00     4
  5 AUG   66 Beg Gr Fil    5252   1.74  14.4   77  1.5  0.00  0.00  0.00  0.00     5
 31 AUG   92 End Gr Fil    7843   0.83  14.4   81  1.0  0.00  0.00  0.00  0.00     6
  2 SEP   94 Maturity      7843   0.83  14.4   81  1.0  0.00  0.00  0.00  0.00    10
 23 OCT  145 Harvest       7843   0.83  14.4   81  1.0  0.00  0.00  0.00  0.00    10


*MAIN GROWTH AND DEVELOPMENT VARIABLES

@     VARIABLE                                         SIMULATED     MEASURED
      --------                                         ---------     --------
      Anthesis day (dap)                                      57          -99
      Physiological maturity day (dap)                        94          -99
      Yield at harvest maturity (kg [dm]/ha)                2695          -99
      Number at maturity (no/m2)                            1295          -99
      Unit wt at maturity (g [dm]/unit)                   0.2080          -99
      Number at maturity (no/unit)                         209.0          -99
      Tops weight at maturity (kg [dm]/ha)                  7843          -99
      By-product produced (stalk) at maturity (kg[dm]/ha    5179          -99
      Leaf area index, maximum                              1.96          -99
      Harvest index at maturity                            0.344          -99
      Grain N at maturity (kg/ha)                             46          -99
      Tops N at maturity (kg/ha)                              81          -99
      Stem N at maturity (kg/ha)                              35          -99
      Grain N at maturity (%)                                1.7          -99
      Tops weight at anthesis (kg [dm]/ha)                  3713          -99
      Tops N at anthesis (kg/ha)                              75          -99
      Leaf number per stem at maturity                     14.42          -99
      Emergence day (dap)                                      4          -99


*ENVIRONMENTAL AND STRESS FACTORS

 |-----Development Phase------|--------------------------------------Environment--------------------------------------|-----------------Stress-----------------|
                              |---------------Average--------------|-----Cumulative-----|--------Count of days--------|          (0=Min, 1=Max Stress)         |
                         Time  Temp  Temp  Temp Solar Photop                Evapo    Pot TMIN TMIN TMAX TMAX TMAX RAIN|----Water----|---Nitrogen--|-Phosphorus-|
                         Span   Max   Min  Mean   Rad  [day]    CO2   Rain  Trans     ET   <    <    >    >    >    >   Photo         Photo         Photo
                         days    øC    øC    øC MJ/m2     hr    ppm     mm     mm     mm  0øC  2øC 30øC 32øC 34øC  0mm  synth Growth  synth Growth  synth Growth
----------------------------------------------------------------------------------------------------------------------------------------------------------------
 Emergence-End Juvenile    10  33.5  23.2  28.4  20.6  12.72  389.6   38.5   31.2   55.9    0    0    8    8    6    3  0.000  0.000  0.002  0.006  0.000  0.000
 End Juvenil-Floral Init    5  33.5  23.5  28.5  21.1  12.74  389.7   12.0   10.6   27.6    0    0    5    3    2    1  0.000  0.000  0.002  0.004  0.000  0.000
 Floral Init-End Lf Grow   38  32.9  21.9  27.4  19.5  12.70  389.8  186.4  144.3  187.6    0    0   34   25   11   13  0.000  0.000  0.000  0.000  0.000  0.000
 End Lf Grth-Beg Grn Fil    9  31.4  20.8  26.1  20.3  12.56  389.9  173.0   44.8   45.1    0    0    7    2    0    8  0.000  0.000  0.000  0.000  0.000  0.000
 Grain Filling Phase       26  30.8  20.0  25.4  19.9  12.39  390.0  243.0  123.5  126.2    0    0   19    4    0   10  0.000  0.000  0.000  0.000  0.000  0.000
   
 Planting to Harvest      145  32.1  21.0  26.6  19.5  12.36  390.0   1164    592    714    0    0  120   68   26   60  0.000  0.000  0.000  0.001  0.000  0.000
----------------------------------------------------------------------------------------------------------------------------------------------------------------


*Resource Productivity
 Growing season length: 145 days 

 Precipitation during growing season      1163.9 mm[rain]
   Dry Matter Productivity                  0.67 kg[DM]/m3[rain]          =    6.7 kg[DM]/ha per mm[rain]
   Yield Productivity                       0.23 kg[grain yield]/m3[rain] =    2.3 kg[yield]/ha per mm[rain]

 Evapotranspiration during growing season  591.5 mm[ET]
   Dry Matter Productivity                  1.33 kg[DM]/m3[ET]            =   13.3 kg[DM]/ha per mm[ET]
   Yield Productivity                       0.46 kg[grain yield]/m3[ET]   =    4.6 kg[yield]/ha per mm[ET]

 Transpiration during growing season       310.2 mm[EP]
   Dry Matter Productivity                  2.53 kg[DM]/m3[EP]            =   25.3 kg[DM]/ha per mm[EP]
   Yield Productivity                       0.87 kg[grain yield]/m3[EP]   =    8.7 kg[yield]/ha per mm[EP]

 N applied during growing season             85. kg[N applied]/ha
   Dry Matter Productivity                  92.3 kg[DM]/kg[N applied]
   Yield Productivity                       31.7 kg[yield]/kg[N applied]

 N uptake during growing season               91 kg[N uptake]/ha
   Dry Matter Productivity                  86.2 kg[DM]/kg[N uptake]
   Yield Productivity                       29.6 kg[yield]/kg[N uptake]

--------------------------------------------------------------------------------------------------------------

                     Maize YIELD :     2695 kg/ha    [Dry weight] 

**************************************************************************************************************
