*GROWTH ASPECTS OUTPUT FILE

*DSSAT Cropping System Model Ver. 4.7.2.000 -release      OCT 15, 2021; 17:59:34
                                                                                
*RUN   1        :             CSM335_date_1 MZCER047 ITSA1301    1              
 MODEL          : MZCER047 - Maize                                              
 EXPERIMENT     : ITSA1301 SG CALIBRATION SETUP OF SORGHUM SOWING DATES         
 DATA PATH      :                                                               
 TREATMENT  1   :             CSM335_date_1 MZCER047                            
  
!                                                                                                                                                                                                                                      Root Dens. (cm/cm3) by soil depth (cm):
!                                                                                                                                                                                                                                      0-5    5-15   15-30   30-60   60-90  90-120
@YEAR DOY   DAS   DAP   L#SD   GSTD   LAID   LWAD   SWAD   GWAD   RWAD   VWAD   CWAD   G#AD   GWGD   HIAD   PWAD   P#AD   WSPD   WSGD   NSTD   EWSD  PST1A  PST2A   KSTD   LN%D   SH%D   HIPD   PWDD   PWTD     SLAD   CHTD   CWID   RDPD    RL1D    RL2D    RL3D    RL4D    RL5D    RL6D   CDAD   LDAD   SDAD   SNW0C   SNW1C  DTTD
 2010 151     2     0    0.0      0   0.00      0      0      0      0      0      0      0    0.0  0.000      0      0  0.000  0.000  0.000  0.000  0.000  0.000  0.000   0.00   0.00   0.00      0      0      0.0   0.00   0.00   0.03    0.00    0.00    0.00    0.00    0.00    0.00      0      0      0       0       0 23.57
 2010 152     3     1    0.0      0   0.00      0      0      0      0      0      0      0    0.0  0.000      0      0  0.000  0.000  0.000  0.000  0.000  0.000  0.000   0.00   0.00   0.00      0      0      0.0   0.00   0.00   0.06    0.00    0.00    0.00    0.00    0.00    0.00      0      0      0       0       0 19.93
 2010 153     4     2    0.0      0   0.00      0      0      0      0      0      0      0    0.0  0.000      0      0  0.000  0.000  0.000  0.000  0.000  0.000  0.000   0.00   0.00   0.00      0      0      0.0   0.00   0.00   0.09    0.00    0.00    0.00    0.00    0.00    0.00      0      0      0       0       0 22.21
 2010 154     5     3    0.0      0   0.00      0      0      0      0      0      0      0    0.0  0.000      0      0  0.000  0.000  0.000  0.000  0.000  0.000  0.000   0.00   0.00   0.00      0      0      0.0   0.00   0.00   0.13    0.00    0.00    0.00    0.00    0.00    0.00      0      0      0       0       0 22.69
 2010 155     6     4    1.0      1   0.00     12     12      0     12     25     25      0    0.0  0.000      0      0  0.000  0.000  0.012  0.000  0.000  0.000  0.000   4.40   0.00   0.00      0      0     21.0   0.00   0.00   0.15    0.25    0.09    0.00    0.00    0.00    0.00      0      0      0       0       0 21.62
 2010 156     7     5    2.0      1   0.00     12     12      0     13     25     25      0    0.0  0.000      0      0  0.000  0.000  0.010  0.000  0.000  0.000  0.000   4.40   0.00   0.00      0      0     39.7   0.00   0.00   0.17    0.25    0.10    0.00    0.00    0.00    0.00      0      0      0       0       0 21.81
 2010 157     8     6    2.0      1   0.01     12     12      0     13     25     25      0    0.0  0.000      0      0  0.000  0.000  0.000  0.000  0.000  0.000  0.000   4.40   0.00   0.00      0      0     62.0   0.00   0.00   0.19    0.25    0.10    0.00    0.00    0.00    0.00      0      0      0       0       0 22.87
 2010 158     9     7    3.0      1   0.01     12     12      0     14     25     25      0    0.0  0.000      0      0  0.000  0.000  0.000  0.000  0.000  0.000  0.000   4.40   0.00   0.00      0      0     86.3   0.01   0.00   0.22    0.26    0.11    0.00    0.00    0.00    0.00      0      0      0       0       0 22.64
 2010 159    10     8    3.0      1   0.01     12     12      0     15     25     25      0    0.0  0.000      0      0  0.000  0.000  0.000  0.000  0.000  0.000  0.000   4.40   0.00   0.00      0      0    113.0   0.01   0.00   0.24    0.27    0.12    0.01    0.00    0.00    0.00      0      0      0       0       0 22.91
 2010 160    11     9    3.0      1   0.02     12     12      0     16     25     25      0    0.0  0.000      0      0  0.000  0.000  0.000  0.000  0.000  0.000  0.000   4.40   0.00   0.00      0      0    141.2   0.01   0.00   0.26    0.28    0.12    0.01    0.00    0.00    0.00      0      0      0       0       0 22.65
 2010 161    12    10    4.0      1   0.02     12     12      0     17     25     25      0    0.0  0.000      0      0  0.000  0.000  0.000  0.000  0.000  0.000  0.000   4.40   0.00   0.00      0      0    197.7   0.01   0.00   0.28    0.28    0.13    0.02    0.00    0.00    0.00      0      0      0       0       0 14.40
 2010 162    13    11    4.0      1   0.03     12     12      0     19     25     25      0    0.0  0.000      0      0  0.000  0.000  0.000  0.000  0.000  0.000  0.000   4.40   0.00   0.00      0      0    279.9   0.02   0.00   0.29    0.30    0.15    0.03    0.00    0.00    0.00      0      0      0       0       0 18.59
 2010 163    14    12    4.0      1   0.05     14     12      0     22     27     27      0    0.0  0.000      0      0  0.000  0.000  0.000  0.000  0.000  0.000  0.000   4.09   0.00   0.00      0      0    332.0   0.03   0.00   0.32    0.32    0.16    0.05    0.00    0.00    0.00      0      0      0       0       0 21.99
 2010 164    15    13    5.0      1   0.06     20     12      0     23     33     33      0    0.0  0.000      0      0  0.000  0.000  0.000  0.000  0.000  0.000  0.000   3.32   0.00   0.00      0      0    308.5   0.03   0.00   0.34    0.32    0.17    0.06    0.00    0.00    0.00      0      0      0       0       0 23.13
 2010 165    16    14    5.0      2   0.08     27     12      0     26     39     39      0    0.0  0.000      0      0  0.000  0.000  0.000  0.000  0.000  0.000  0.000   3.24   0.00   0.00      0      0    312.4   0.04   0.00   0.39    0.34    0.19    0.08    0.00    0.00    0.00      0      0      0       0       0 22.73
 2010 166    17    15    5.0      2   0.10     35     12      0     30     48     48      0    0.0  0.000      0      0  0.000  0.000  0.008  0.000  0.000  0.000  0.000   3.18   0.00   0.00      0      0    294.7   0.06   0.00   0.43    0.37    0.21    0.10    0.01    0.00    0.00      0      0      0       0       0 22.45
 2010 167    18    16    6.0      2   0.13     46     12      0     37     58     58      0    0.0  0.000      0      0  0.000  0.000  0.000  0.000  0.000  0.000  0.000   3.14   0.00   0.00      0      0    279.2   0.07   0.00   0.48    0.40    0.24    0.13    0.01    0.00    0.00      0      0      0       0       0 23.00
 2010 168    19    17    6.0      2   0.14     53     12      0     38     65     65      0    0.0  0.000      0      0  0.000  0.000  0.000  0.000  0.000  0.000  0.000   3.79   0.00   0.00      0      0    270.9   0.08   0.00   0.51    0.40    0.24    0.13    0.02    0.00    0.00      0      0      0       0       1 18.45
 2010 169    20    18    6.0      2   0.17     64     12      0     45     76     76      0    0.0  0.000      0      0  0.000  0.000  0.000  0.000  0.000  0.000  0.000   3.73   0.00   0.00      0      0    260.1   0.09   0.00   0.55    0.44    0.28    0.16    0.03    0.00    0.00      0      0      0       0       1 20.09
 2010 170    21    19    6.0      3   0.19     78     12      0     55     90     90      0    0.0  0.000      0      0  0.000  0.000  0.000  0.000  0.000  0.000  0.000   3.62   0.00   0.00      0      0    248.5   0.10   0.00   0.60    0.48    0.32    0.21    0.05    0.00    0.00      0      0      0       0       1 22.07
 2010 171    22    20    7.0      3   0.23     94     13      0     66    107    107      0    0.0  0.000      0      0  0.000  0.000  0.000  0.000  0.000  0.000  0.000   3.54   0.00   0.00      0      0    240.1   0.12   0.00   0.64    0.53    0.37    0.25    0.07    0.00    0.00      0      0      0       0       1 22.86
 2010 172    23    21    7.0      3   0.26    113     13      0     78    126    126      0    0.0  0.000      0      0  0.000  0.000  0.000  0.000  0.000  0.000  0.000   3.49   0.00   0.00      0      0    232.2   0.14   0.00   0.69    0.58    0.42    0.30    0.10    0.00    0.00      0      0      0       0       2 23.31
 2010 173    24    22    7.0      3   0.30    133     13      0     88    146    146      0    0.0  0.000      0      0  0.000  0.000  0.000  0.000  0.000  0.000  0.000   3.44   0.00   0.00      0      0    225.5   0.16   0.00   0.73    0.62    0.46    0.34    0.11    0.01    0.00      0      0      0       0       2 21.35
 2010 174    25    23    7.0      3   0.34    154     14      0    101    168    168      0    0.0  0.000      0      0  0.000  0.000  0.000  0.000  0.000  0.000  0.000   3.39   0.00   0.00      0      0    219.3   0.18   0.00   0.77    0.68    0.52    0.39    0.14    0.02    0.00      0      0      0       0       2 21.23
 2010 175    26    24    8.0      3   0.38    180     16      0    118    196    196      0    0.0  0.000      0      0  0.000  0.000  0.000  0.000  0.000  0.000  0.000   3.34   0.00   0.00      0      0    212.8   0.21   0.00   0.82    0.73    0.58    0.46    0.17    0.03    0.00      0      0      0       0       3 23.47
 2010 176    27    25    8.0      3   0.42    203     17      0    119    221    221      0    0.0  0.000      0      0  0.000  0.000  0.000  0.000  0.000  0.000  0.000   3.30   0.00   0.00      0      0    208.1   0.23   0.00   0.86    0.73    0.58    0.46    0.17    0.03    0.00      0      0      0       0       4 18.66
 2010 177    28    26    8.0      3   0.47    232     20      0    136    253    253      0    0.0  0.000      0      0  0.000  0.000  0.000  0.000  0.000  0.000  0.000   3.26   0.00   0.00      0      0    202.8   0.25   0.00   0.90    0.78    0.63    0.51    0.21    0.05    0.00      0      0      0       0       4 21.51
 2010 178    29    27    9.0      3   0.52    259     24      0    144    283    283      0    0.0  0.000      0      0  0.000  0.000  0.000  0.000  0.000  0.000  0.000   3.22   0.00   0.00      0      0    198.6   0.28   0.00   0.94    0.80    0.66    0.54    0.23    0.06    0.00      0      0      0       0       5 18.59
 2010 179    30    28    9.0      3   0.57    291     28      0    173    320    320      0    0.0  0.000      0      0  0.000  0.000  0.000  0.000  0.000  0.000  0.000   3.17   0.00   0.00      0      0    194.2   0.30   0.00   0.98    0.87    0.73    0.62    0.29    0.10    0.01      0      0      0       0       6 20.25
 2010 180    31    29    9.0      3   0.62    329     35      0    199    364    364      0    0.0  0.000      0      0  0.000  0.000  0.000  0.000  0.000  0.000  0.000   3.13   0.00   0.00      0      0    189.7   0.34   0.00   1.02    0.94    0.80    0.69    0.34    0.14    0.01      0      0      0       0       6 21.63
 2010 181    32    30    9.0      3   0.68    367     43      0    216    410    410      0    0.0  0.000      0      0  0.000  0.000  0.000  0.000  0.000  0.000  0.000   3.09   0.00   0.00      0      0    185.8   0.37   0.00   1.06    0.98    0.85    0.74    0.38    0.16    0.02      0      0      0       0       7 20.36
 2010 182    33    31   10.0      3   0.74    406     53      0    232    459    459      0    0.0  0.000      0      0  0.000  0.000  0.000  0.000  0.000  0.000  0.000   3.05   0.00   0.00      0      0    182.1   0.40   0.00   1.10    1.02    0.89    0.78    0.41    0.18    0.03      0      0      0       0       8 19.64
 2010 183    34    32   10.0      3   0.80    448     65      0    249    512    512      0    0.0  0.000      0      0  0.000  0.000  0.000  0.000  0.000  0.000  0.000   3.01   0.00   0.00      0      0    178.7   0.43   0.00   1.14    1.07    0.93    0.83    0.45    0.20    0.04      0      0      0       0      10 19.39
 2010 184    35    33   10.0      3   0.86    491     79      0    266    570    570      0    0.0  0.000      0      0  0.000  0.000  0.000  0.000  0.000  0.000  0.000   2.97   0.00   0.00      0      0    175.5   0.46   0.00   1.18    1.11    0.97    0.87    0.48    0.22    0.06      0      0      0       0      11 19.02
 2010 185    36    34   10.0      3   0.93    543     97      0    304    640    640      0    0.0  0.000      0      0  0.000  0.000  0.000  0.000  0.000  0.000  0.000   2.93   0.00   0.00      0      0    172.1   0.50   0.00   1.20    1.21    1.07    0.97    0.55    0.26    0.09      0      0      0       0      12 20.80
 2010 186    37    35   11.0      3   1.02    602    122      0    327    724    724      0    0.0  0.000      0      0  0.000  0.000  0.000  0.000  0.000  0.000  0.000   2.89   0.00   0.00      0      0    168.6   0.55   0.00   1.20    1.27    1.12    1.03    0.60    0.29    0.11      0      0      0       0      14 22.43
 2010 187    38    36   11.0      3   1.09    661    149      0    349    810    810      0    0.0  0.000      0      0  0.000  0.000  0.000  0.000  0.000  0.000  0.000   2.85   0.00   0.00      0      0    165.6   0.59   0.00   1.20    1.30    1.18    1.09    0.64    0.32    0.12      0      0      0       0      15 20.60
 2010 188    39    37   11.0      3   1.17    721    180      0    368    901    901      0    0.0  0.000      0      0  0.000  0.000  0.000  0.000  0.000  0.000  0.000   2.82   0.00   0.00      0      0    162.8   0.63   0.00   1.20    1.31    1.23    1.14    0.68    0.34    0.14      0      0      0       0      17 19.70
 2010 189    40    38   12.0      3   1.22    756    268      0    373   1024   1024      0    0.0  0.000      0      0  0.000  0.000  0.000  0.000  0.000  0.000  0.000   2.78   0.00   0.00      0      0    161.3   0.66   0.00   1.20    1.31    1.24    1.15    0.69    0.34    0.14      0      0      0       0      19 20.88
 2010 190    41    39   12.0      3   1.27    792    363      0    378   1156   1156      0    0.0  0.000      0      0  0.000  0.000  0.000  0.000  0.000  0.000  0.000   2.74   0.00   0.00      0      0    159.8   0.68   0.00   1.20    1.30    1.26    1.17    0.70    0.35    0.15      0      0      0       0      21 19.75
 2010 191    42    40   12.0      3   1.31    823    452      0    383   1275   1275      0    0.0  0.000      0      0  0.000  0.000  0.000  0.000  0.000  0.000  0.000   2.71   0.00   0.00      0      0    158.6   0.70   0.00   1.20    1.31    1.27    1.18    0.71    0.36    0.15      0      0      0       0      23 18.75
 2010 192    43    41   12.0      3   1.35    862    567      0    389   1429   1429      0    0.0  0.000      0      0  0.000  0.000  0.000  0.000  0.000  0.000  0.000   2.67   0.00   0.00      0      0    157.2   0.73   0.00   1.20    1.33    1.28    1.19    0.72    0.36    0.16      0      0      0       0      25 19.71
 2010 193    44    42   13.0      3   1.38    885    638      0    393   1523   1523      0    0.0  0.000      0      0  0.000  0.000  0.000  0.000  0.000  0.000  0.000   2.64   0.00   0.00      0      0    156.4   0.75   0.00   1.20    1.34    1.29    1.20    0.73    0.37    0.16      0      0      0       0      27 18.12
 2010 194    45    43   13.0      3   1.44    929    780      0    404   1709   1711      0    0.0  0.000      3      0  0.000  0.000  0.000  0.000  0.000  0.000  0.000   2.61   0.00   0.00      0      3    154.9   0.78   0.00   1.20    1.36    1.31    1.23    0.75    0.38    0.17      0      0      0       0      28 18.75
 2010 195    46    44   13.0      3   1.48    966    902      0    411   1868   1874      0    0.0  0.000      6      0  0.000  0.000  0.000  0.000  0.000  0.000  0.000   2.58   0.00   0.00      0      6    153.7   0.80   0.00   1.20    1.38    1.32    1.24    0.76    0.39    0.18      0      0      0       0      31 20.00
 2010 196    47    45   13.0      3   1.53   1006   1037      0    419   2044   2055      0    0.0  0.000     11      0  0.000  0.000  0.000  0.000  0.000  0.000  0.000   2.55   0.00   0.01      0     11    152.4   0.83   0.00   1.20    1.40    1.34    1.26    0.78    0.40    0.18      0      0      0       0      33 19.86
 2010 197    48    46   14.0      3   1.58   1041   1156      0    426   2196   2213      0    0.0  0.000     17      0  0.000  0.000  0.000  0.000  0.000  0.000  0.000   2.52   0.00   0.01      0     17    151.4   0.85   0.00   1.20    1.41    1.35    1.27    0.79    0.41    0.19      0      0      0       0      35 20.62
 2010 198    49    47   14.0      3   1.62   1075   1273      0    433   2348   2374      0    0.0  0.000     27      0  0.000  0.000  0.000  0.000  0.000  0.000  0.000   2.49   0.00   0.01      0     27    150.5   0.87   0.00   1.20    1.43    1.37    1.29    0.81    0.42    0.20      0      0      0       0      37 18.80
 2010 199    50    48   14.0      3   1.67   1115   1401      0    451   2516   2563      0    0.0  0.000     47      0  0.000  0.000  0.000  0.000  0.000  0.000  0.000   2.47   0.00   0.02      0     47    149.4   0.90   0.00   1.20    1.48    1.41    1.33    0.84    0.44    0.21      0      0      0       0      39 19.25
 2010 200    51    49   14.0      3   1.72   1157   1528      0    467   2685   2761      0    0.0  0.000     76      0  0.000  0.000  0.000  0.000  0.000  0.000  0.000   2.44   0.00   0.03      0     76    148.3   0.92   0.00   1.20    1.52    1.44    1.37    0.87    0.46    0.23      0      0      0       0      41 20.25
 2010 201    52    50   14.0      3   1.74   1180   1600      0    470   2780   2867      0    0.0  0.000     87      0  0.000  0.000  0.000  0.000  0.000  0.000  0.000   2.40   0.00   0.03      0     87    147.7   0.94   0.00   1.20    1.53    1.45    1.38    0.88    0.47    0.23      0      0      0       0      44 18.25
 2010 202    53    51   14.0      3   1.79   1220   1692      0    494   2912   3051      0    0.0  0.000    140      0  0.000  0.000  0.000  0.000  0.000  0.000  0.000   2.40   0.00   0.05      0    140    146.7   0.96   0.00   1.20    1.59    1.50    1.43    0.93    0.50    0.25      0      0      0       0      46 18.75
 2010 203    54    52   14.0      3   1.83   1256   1770      0    500   3027   3218      0    0.0  0.000    191      0  0.000  0.000  0.000  0.000  0.000  0.000  0.000   2.37   0.00   0.06      0    191    145.9   0.99   0.00   1.20    1.60    1.51    1.45    0.94    0.50    0.25      0      0      0       0      48 17.12
 2010 204    55    53   14.0      3   1.85   1274   1820      0    503   3094   3301      0    0.0  0.000    206      0  0.000  0.000  0.000  0.000  0.000  0.000  0.000   2.32   0.00   0.06      0    206    145.5   1.00   0.00   1.20    1.60    1.52    1.45    0.94    0.51    0.26      0      0      0       0      48 18.00
 2010 205    56    54   14.0      3   1.87   1292   1864      0    505   3156   3384      0    0.0  0.000    227      0  0.000  0.000  0.000  0.000  0.000  0.000  0.000   2.30   0.00   0.07      0    227    145.1   1.01   0.00   1.20    1.60    1.52    1.45    0.95    0.51    0.26      0      0      0       0      51 15.50
 2010 206    57    55   14.0      3   1.92   1328   1888      0    529   3216   3548      0    0.0  0.000    331      0  0.000  0.000  0.000  0.000  0.000  0.000  0.000   2.33   0.00   0.09      0    331    144.3   1.03   0.00   1.20    1.64    1.56    1.50    1.00    0.55    0.28      0      0      0       0      53 16.62
 2010 207    58    56   14.0      3   1.96   1364   1920      0    535   3284   3713      0    0.0  0.000    429      0  0.000  0.000  0.000  0.000  0.000  0.000  0.000   2.30   0.00   0.12      0    429    143.5   1.05   0.00   1.20    1.65    1.57    1.52    1.01    0.56    0.29      0      0      0       0      56 17.25
 2010 208    59    57   14.0      4   1.86   1347   1984      0    541   3331   3881      0    0.0  0.000    550      0  0.000  0.000  0.000  0.000  0.000  0.000  0.000   2.30   0.00   0.14      0    550    138.0   1.05   0.00   1.20    1.65    1.58    1.52    1.02    0.57    0.30      0      0      0       0      59 17.62
 2010 209    60    58   14.0      4   1.85   1328   2025      0    544   3353   4003      0    0.0  0.000    650      0  0.000  0.000  0.000  0.000  0.000  0.000  0.000   2.28   0.00   0.16      0    650    139.3   1.05   0.00   1.20    1.65    1.58    1.53    1.03    0.58    0.30      0      0      0       0      59 17.75
 2010 210    61    59   14.0      4   1.84   1308   2057      0    547   3365   4112      0    0.0  0.000    748      0  0.000  0.000  0.000  0.000  0.000  0.000  0.000   2.27   0.00   0.18      0    748    140.8   1.05   0.00   1.20    1.65    1.57    1.53    1.03    0.58    0.31      0      0      0       0      59 17.00
 2010 211    62    60   14.0      4   1.83   1286   2092      0    552   3378   4257      0    0.0  0.000    879      0  0.000  0.000  0.000  0.000  0.000  0.000  0.000   2.26   0.00   0.21      0    879    142.5   1.05   0.00   1.20    1.64    1.57    1.53    1.04    0.59    0.31      0      0      0       0      59 18.35
 2010 212    63    61   14.0      4   1.82   1263   2131      0    558   3393   4440      0    0.0  0.000   1046      0  0.000  0.000  0.000  0.000  0.000  0.000  0.000   2.25   0.00   0.24      0   1046    144.4   1.05   0.00   1.20    1.64    1.58    1.54    1.05    0.61    0.32      0      0      0       0      59 18.00
 2010 213    64    62   14.0      4   1.82   1238   2164      0    563   3401   4610      0    0.0  0.000   1209      0  0.000  0.000  0.000  0.000  0.000  0.000  0.000   2.25   0.00   0.26      0   1209    146.6   1.05   0.00   1.20    1.64    1.58    1.55    1.06    0.62    0.34      0      0      0       0      59 17.75
 2010 214    65    63   14.0      4   1.81   1212   2200      0    571   3412   4823      0    0.0  0.000   1411      0  0.000  0.000  0.000  0.000  0.000  0.000  0.000   2.24   0.00   0.29      0   1411    149.1   1.05   0.00   1.20    1.64    1.58    1.55    1.07    0.63    0.35      0      0      0       0      59 18.25
 2010 215    66    64   14.0      4   1.80   1184   2228      0    576   3412   4987      0    0.0  0.000   1575      0  0.000  0.000  0.000  0.000  0.000  0.000  0.000   2.24   0.00   0.32      0   1575    151.8   1.05   0.00   1.20    1.64    1.58    1.56    1.08    0.65    0.36      0      0      0       0      59 19.25
 2010 216    67    65   14.0      4   1.79   1155   2254      0    582   3408   5149      0    0.0  0.000   1740      0  0.000  0.000  0.000  0.000  0.000  0.000  0.000   2.24   0.00   0.34      0   1740    154.8   1.05   0.00   1.20    1.64    1.58    1.56    1.09    0.66    0.37      0      0      0       0      59 19.25
 2010 217    68    66   14.0      5   1.74   1155   2254    104    610   3408   5252   1295    8.0  0.020   1844      6  0.000  0.000  0.000  0.000  0.000  0.000  0.000   2.19   5.62   0.35      0   1844    151.1   1.05   0.00   1.20    1.66    1.60    1.60    1.14    0.71    0.43      0      0      0       0      59 16.62
 2010 218    69    67   14.0      5   1.74   1155   2254    207    625   3408   5356   1295   16.0  0.039   1948      6  0.000  0.000  0.000  0.000  0.000  0.000  0.000   2.14  10.64   0.36      0   1948    150.5   1.05   0.00   1.20    1.67    1.61    1.62    1.16    0.74    0.46      0      0      0       0      59 17.38
 2010 219    70    68   14.0      5   1.73   1155   2254    311    652   3408   5460   1295   24.0  0.057   2051      6  0.000  0.000  0.000  0.000  0.000  0.000  0.000   2.09  15.16   0.38      0   2051    149.7   1.05   0.00   1.20    1.69    1.63    1.65    1.20    0.80    0.51      0      0      0       0      59 18.12
 2010 220    71    69   14.0      5   1.72   1155   2254    415    672   3408   5563   1295   32.0  0.075   2155      6  0.000  0.000  0.000  0.000  0.000  0.000  0.000   2.04  19.24   0.39      0   2155    148.8   1.05   0.00   1.20    1.70    1.65    1.68    1.23    0.83    0.55      0      0      0       0      59 17.15
 2010 221    72    70   14.0      5   1.71   1155   2239    518    669   3394   5652   1295   40.0  0.092   2259      6  0.000  0.000  0.000  0.000  0.000  0.000  0.000   1.99  22.94   0.40      0   2259    147.8   1.05   0.00   1.20    1.70    1.65    1.68    1.23    0.83    0.55      0      0      0       0      59 17.38
 2010 222    73    71   14.0      5   1.69   1155   2254    622    680   3408   5771   1295   48.0  0.108   2362      6  0.000  0.000  0.000  0.000  0.000  0.000  0.000   1.93  26.32   0.41      0   2362    146.6   1.05   0.00   1.20    1.71    1.66    1.69    1.25    0.86    0.57      0      0      0       0      59 17.88
 2010 223    74    72   14.0      5   1.68   1155   2254    725    677   3408   5874   1295   56.0  0.124   2466      6  0.000  0.000  0.000  0.000  0.000  0.000  0.000   1.88  29.42   0.42      0   2466    145.3   1.05   0.00   1.20    1.70    1.65    1.68    1.24    0.85    0.57      0      0      0       0      59 16.50
 2010 224    75    73   14.0      5   1.66   1155   2254    829    687   3408   5978   1295   64.0  0.139   2570      6  0.000  0.000  0.000  0.000  0.000  0.000  0.000   1.83  32.27   0.43      0   2570    143.8   1.05   0.00   1.20    1.71    1.66    1.70    1.26    0.87    0.59      0      0      0       0      59 16.50
 2010 225    76    74   14.0      5   1.64   1155   2254    933    713   3408   6081   1295   72.0  0.153   2673      6  0.000  0.000  0.000  0.000  0.000  0.000  0.000   1.78  34.89   0.44      0   2673    142.1   1.05   0.00   1.20    1.74    1.69    1.74    1.29    0.92    0.64      0      0      0       0      59 17.50
 2010 226    77    75   14.0      5   1.62   1155   2254   1036    711   3408   6185   1295   80.0  0.168   2777      6  0.000  0.000  0.000  0.000  0.000  0.000  0.000   1.72  37.32   0.45      0   2777    140.1   1.05   0.00   1.20    1.73    1.68    1.73    1.29    0.92    0.64      0      0      0       0      59 17.62
 2010 227    78    76   14.0      5   1.60   1155   2254   1140    726   3408   6289   1295   88.0  0.181   2881      6  0.000  0.000  0.000  0.000  0.000  0.000  0.000   1.67  39.58   0.46      0   2881    138.2   1.05   0.00   1.20    1.74    1.69    1.75    1.31    0.95    0.67      0      0      0       0      59 15.88
 2010 228    79    77   14.0      5   1.57   1155   2254   1244    757   3408   6392   1295   96.0  0.195   2984      6  0.000  0.000  0.000  0.000  0.000  0.000  0.000   1.62  41.68   0.47      0   2984    136.0   1.05   0.00   1.20    1.77    1.73    1.79    1.34    1.00    0.74      0      0      0       0      59 16.30
 2010 229    80    78   14.0      5   1.54   1155   2254   1347    769   3408   6496   1295  104.0  0.207   3088      6  0.000  0.000  0.000  0.000  0.000  0.000  0.000   1.57  43.63   0.48      0   3088    133.2   1.05   0.00   1.20    1.78    1.73    1.80    1.36    1.03    0.76      0      0      0       0      59 18.75
 2010 230    81    79   14.0      5   1.51   1155   2254   1451    787   3408   6600   1295  112.0  0.220   3191      6  0.000  0.000  0.000  0.000  0.000  0.000  0.000   1.52  45.46   0.48      0   3191    130.5   1.05   0.00   1.20    1.79    1.75    1.82    1.38    1.06    0.81      0      0      0       0      59 16.75
 2010 231    82    80   14.0      5   1.47   1155   2254   1555    812   3408   6703   1295  120.0  0.232   3295      6  0.000  0.000  0.000  0.000  0.000  0.000  0.000   1.46  47.18   0.49      0   3295    127.2   1.05   0.00   1.20    1.82    1.78    1.86    1.41    1.11    0.86      0      0      0       0      59 18.12
 2010 232    83    81   14.0      5   1.43   1155   2254   1658    837   3408   6807   1295  128.0  0.244   3399      6  0.000  0.000  0.000  0.000  0.000  0.000  0.000   1.41  48.79   0.50      0   3399    123.7   1.05   0.00   1.20    1.85    1.81    1.90    1.44    1.15    0.92      0      0      0       0      59 18.38
 2010 233    84    82   14.0      5   1.39   1155   2249   1762    833   3404   6906   1295  136.0  0.255   3502      6  0.000  0.000  0.000  0.000  0.000  0.000  0.000   1.36  50.31   0.51      0   3502    120.0   1.05   0.00   1.20    1.85    1.81    1.90    1.44    1.15    0.92      0      0      0       0      59 17.25
 2010 234    85    83   14.0      5   1.34   1155   2254   1866    841   3408   7014   1295  144.0  0.266   3606      6  0.000  0.000  0.000  0.000  0.000  0.000  0.000   1.23  51.73   0.51      0   3606    116.1   1.05   0.00   1.20    1.85    1.81    1.91    1.45    1.17    0.94      0      0      0       0      63 17.23
 2010 235    86    84   14.0      5   1.29   1155   2254   1969    860   3408   7118   1295  152.0  0.277   3710      6  0.000  0.000  0.000  0.000  0.000  0.000  0.000   1.21  53.08   0.52      0   3710    111.8   1.05   0.00   1.20    1.87    1.84    1.94    1.47    1.20    0.98      0      0      0       0      67 17.62
 2010 236    87    85   14.0      5   1.24   1155   2254   2073    864   3408   7222   1295  160.0  0.287   3813      6  0.000  0.000  0.000  0.000  0.000  0.000  0.000   1.17  54.36   0.53      0   3813    107.2   1.05   0.00   1.20    1.88    1.84    1.95    1.47    1.21    0.99      0      0      0       0      71 17.50
 2010 237    88    86   14.0      5   1.18   1155   2254   2176    879   3408   7325   1295  168.0  0.297   3917      6  0.000  0.000  0.000  0.000  0.000  0.000  0.000   1.15  55.57   0.53      0   3917    102.4   1.05   0.00   1.20    1.90    1.86    1.97    1.49    1.24    1.02      0      0      0       0      76 17.12
 2010 238    89    87   14.0      5   1.12   1155   2254   2280    888   3408   7429   1295  176.0  0.307   4021      6  0.000  0.000  0.000  0.000  0.000  0.000  0.000   1.12  56.71   0.54      0   4021     96.8   1.05   0.00   1.20    1.90    1.87    1.99    1.49    1.25    1.04      0      0      0       0      80 18.62
 2010 239    90    88   14.0      5   1.05   1155   2254   2384    886   3408   7532   1295  184.0  0.316   4124      6  0.000  0.000  0.000  0.000  0.000  0.000  0.000   1.09  57.80   0.55      0   4124     91.3   1.05   0.00   1.20    1.90    1.87    1.98    1.49    1.25    1.04      0      0      0       0      85 17.12
 2010 240    91    89   14.0      5   0.98   1155   2254   2487    896   3408   7636   1295  192.0  0.326   4228      6  0.000  0.000  0.000  0.000  0.000  0.000  0.000   1.07  58.83   0.55      0   4228     85.3   1.05   0.00   1.20    1.90    1.88    2.00    1.50    1.27    1.06      0      0      0       0      89 17.62
 2010 241    92    90   14.0      5   0.91   1155   2254   2591    900   3408   7740   1295  200.0  0.335   4331      6  0.000  0.000  0.000  0.000  0.000  0.000  0.000   1.04  59.82   0.56      0   4331     79.0   1.05   0.00   1.20    1.90    1.88    2.00    1.50    1.27    1.07      0      0      0       0      93 17.25
 2010 242    93    91   14.0      5   0.83   1155   2254   2695    910   3408   7843   1295  208.0  0.344   4435      6  0.000  0.000  0.000  0.000  0.000  0.000  0.000   1.02  60.76   0.57      0   4435     71.9   1.05   0.00   1.20    1.91    1.89    2.02    1.52    1.29    1.10      0      0      0       0      98 18.25
 2010 243    94    92   14.0      5   0.83   1155   2254   2695    910   3408   7843   1295  208.0  0.344   4435      6  0.000  0.000  0.000  0.000  0.000  0.000  0.000   1.02  60.76   0.57      0   4435     71.9   1.05   0.00   1.20    1.91    1.90    2.03    1.53    1.31    1.12      0      0      0       0      98 17.50
 2010 244    95    93   14.0      5   0.83   1155   2254   2695    910   3408   7843   1295  208.0  0.344   4435      6  0.000  0.000  0.000  0.000  0.000  0.000  0.000   1.02  60.76   0.57      0   4435     71.9   1.05   0.00   1.20    1.92    1.91    2.05    1.54    1.32    1.14      0      0      0       0      98 17.50
 2010 245    96    94   14.0      5   0.83   1155   2254   2695    910   3408   7843   1295  208.0  0.344   4435      6  0.000  0.000  0.000  0.000  0.000  0.000  0.000   1.02  60.76   0.57      0   4435     71.9   1.05   0.00   1.20    1.92    1.91    2.06    1.55    1.34    1.16      0      0      0       0      98  0.00
 2010 246    97    95   14.0      5   0.83   1155   2254   2695    910   3408   7843   1295  208.0  0.344   4435      6  0.000  0.000  0.000  0.000  0.000  0.000  0.000   1.02  60.76   0.57      0   4435     71.9   1.05   0.00   1.20    1.92    1.92    2.08    1.56    1.35    1.18      0      0      0       0      98 16.75
 2010 247    98    96   14.0      5   0.83   1155   2254   2695    910   3408   7843   1295  208.0  0.344   4435      6  0.000  0.000  0.000  0.000  0.000  0.000  0.000   1.02  60.76   0.57      0   4435     71.9   1.05   0.00   1.20    1.93    1.93    2.09    1.58    1.37    1.20      0      0      0       0      98 15.75
 2010 248    99    97   14.0      5   0.83   1155   2254   2695    910   3408   7843   1295  208.0  0.344   4435      6  0.000  0.000  0.000  0.000  0.000  0.000  0.000   1.02  60.76   0.57      0   4435     71.9   1.05   0.00   1.20    1.93    1.94    2.10    1.59    1.39    1.22      0      0      0       0      98 17.50
 2010 249   100    98   14.0      5   0.83   1155   2254   2695    910   3408   7843   1295  208.0  0.344   4435      6  0.000  0.000  0.000  0.000  0.000  0.000  0.000   1.02  60.76   0.57      0   4435     71.9   1.05   0.00   1.20    1.94    1.94    2.11    1.60    1.40    1.24      0      0      0       0      98 18.25
 2010 250   101    99   14.0      5   0.83   1155   2254   2695    910   3408   7843   1295  208.0  0.344   4435      6  0.000  0.000  0.000  0.000  0.000  0.000  0.000   1.02  60.76   0.57      0   4435     71.9   1.05   0.00   1.20    1.94    1.94    2.12    1.61    1.42    1.27      0      0      0       0      98 15.12
 2010 251   102   100   14.0      5   0.83   1155   2254   2695    910   3408   7843   1295  208.0  0.344   4435      6  0.000  0.000  0.000  0.000  0.000  0.000  0.000   1.02  60.76   0.57      0   4435     71.9   1.05   0.00   1.20    1.95    1.95    2.13    1.62    1.44    1.29      0      0      0       0      98 17.60
 2010 252   103   101   14.0      5   0.83   1155   2254   2695    910   3408   7843   1295  208.0  0.344   4435      6  0.000  0.000  0.000  0.000  0.000  0.000  0.000   1.02  60.76   0.57      0   4435     71.9   1.05   0.00   1.20    1.95    1.96    2.14    1.63    1.45    1.31      0      0      0       0      98 17.25
 2010 253   104   102   14.0      5   0.83   1155   2254   2695    910   3408   7843   1295  208.0  0.344   4435      6  0.000  0.000  0.000  0.000  0.000  0.000  0.000   1.02  60.76   0.57      0   4435     71.9   1.05   0.00   1.20    1.96    1.96    2.16    1.64    1.47    1.33      0      0      0       0      98 17.00
 2010 254   105   103   14.0      5   0.83   1155   2254   2695    910   3408   7843   1295  208.0  0.344   4435      6  0.000  0.000  0.000  0.000  0.000  0.000  0.000   1.02  60.76   0.57      0   4435     71.9   1.05   0.00   1.20    1.97    1.97    2.17    1.65    1.49    1.35      0      0      0       0      98 17.75
 2010 255   106   104   14.0      5   0.83   1155   2254   2695    910   3408   7843   1295  208.0  0.344   4435      6  0.000  0.000  0.000  0.000  0.000  0.000  0.000   1.02  60.76   0.57      0   4435     71.9   1.05   0.00   1.20    1.97    1.98    2.18    1.66    1.50    1.37      0      0      0       0      98 18.50
 2010 256   107   105   14.0      5   0.83   1155   2254   2695    910   3408   7843   1295  208.0  0.344   4435      6  0.000  0.000  0.000  0.000  0.000  0.000  0.000   1.02  60.76   0.57      0   4435     71.9   1.05   0.00   1.20    1.98    2.00    2.20    1.66    1.51    1.39      0      0      0       0      98 17.12
 2010 257   108   106   14.0      5   0.83   1155   2254   2695    910   3408   7843   1295  208.0  0.344   4435      6  0.000  0.000  0.000  0.000  0.000  0.000  0.000   1.02  60.76   0.57      0   4435     71.9   1.05   0.00   1.20    1.99    2.01    2.21    1.67    1.53    1.41      0      0      0       0      98 17.50
 2010 258   109   107   14.0      5   0.83   1155   2254   2695    910   3408   7843   1295  208.0  0.344   4435      6  0.000  0.000  0.000  0.000  0.000  0.000  0.000   1.02  60.76   0.57      0   4435     71.9   1.05   0.00   1.20    1.99    2.01    2.22    1.68    1.54    1.43      0      0      0       0      98 17.00
 2010 259   110   108   14.0      5   0.83   1155   2254   2695    910   3408   7843   1295  208.0  0.344   4435      6  0.000  0.000  0.000  0.000  0.000  0.000  0.000   1.02  60.76   0.57      0   4435     71.9   1.05   0.00   1.20    2.00    2.02    2.24    1.69    1.56    1.46      0      0      0       0      98 18.46
 2010 260   111   109   14.0      5   0.83   1155   2254   2695    910   3408   7843   1295  208.0  0.344   4435      6  0.000  0.000  0.000  0.000  0.000  0.000  0.000   1.02  60.76   0.57      0   4435     71.9   1.05   0.00   1.20    2.01    2.03    2.25    1.70    1.58    1.48      0      0      0       0      98 18.12
 2010 261   112   110   14.0      5   0.83   1155   2254   2695    910   3408   7843   1295  208.0  0.344   4435      6  0.000  0.000  0.000  0.000  0.000  0.000  0.000   1.02  60.76   0.57      0   4435     71.9   1.05   0.00   1.20    2.02    2.04    2.26    1.71    1.59    1.50      0      0      0       0      98 15.85
 2010 262   113   111   14.0      5   0.83   1155   2254   2695    910   3408   7843   1295  208.0  0.344   4435      6  0.000  0.000  0.000  0.000  0.000  0.000  0.000   1.02  60.76   0.57      0   4435     71.9   1.05   0.00   1.20    2.03    2.05    2.28    1.72    1.60    1.52      0      0      0       0      98 17.75
 2010 263   114   112   14.0      5   0.83   1155   2254   2695    910   3408   7843   1295  208.0  0.344   4435      6  0.000  0.000  0.000  0.000  0.000  0.000  0.000   1.02  60.76   0.57      0   4435     71.9   1.05   0.00   1.20    2.04    2.06    2.29    1.72    1.62    1.54      0      0      0       0      98 17.50
 2010 264   115   113   14.0      5   0.83   1155   2254   2695    910   3408   7843   1295  208.0  0.344   4435      6  0.000  0.000  0.000  0.000  0.000  0.000  0.000   1.02  60.76   0.57      0   4435     71.9   1.05   0.00   1.20    2.06    2.07    2.31    1.73    1.63    1.56      0      0      0       0      98 17.50
 2010 265   116   114   14.0      5   0.83   1155   2254   2695    910   3408   7843   1295  208.0  0.344   4435      6  0.000  0.000  0.000  0.000  0.000  0.000  0.000   1.02  60.76   0.57      0   4435     71.9   1.05   0.00   1.20    2.07    2.09    2.33    1.74    1.64    1.58      0      0      0       0      98 17.75
 2010 266   117   115   14.0      5   0.83   1155   2254   2695    910   3408   7843   1295  208.0  0.344   4435      6  0.000  0.000  0.000  0.000  0.000  0.000  0.000   1.02  60.76   0.57      0   4435     71.9   1.05   0.00   1.20    2.08    2.10    2.34    1.75    1.65    1.59      0      0      0       0      98 18.25
 2010 267   118   116   14.0      5   0.83   1155   2254   2695    910   3408   7843   1295  208.0  0.344   4435      6  0.000  0.000  0.000  0.000  0.000  0.000  0.000   1.02  60.76   0.57      0   4435     71.9   1.05   0.00   1.20    2.09    2.11    2.36    1.75    1.67    1.61      0      0      0       0      98 18.50
 2010 268   119   117   14.0      5   0.83   1155   2254   2695    910   3408   7843   1295  208.0  0.344   4435      6  0.000  0.000  0.000  0.000  0.000  0.000  0.000   1.02  60.76   0.57      0   4435     71.9   1.05   0.00   1.20    2.11    2.13    2.38    1.76    1.68    1.63      0      0      0       0      98 18.38
 2010 269   120   118   14.0      5   0.83   1155   2254   2695    910   3408   7843   1295  208.0  0.344   4435      6  0.000  0.000  0.000  0.000  0.000  0.000  0.000   1.02  60.76   0.57      0   4435     71.9   1.05   0.00   1.20    2.13    2.15    2.40    1.77    1.69    1.64      0      0      0       0      98 19.75
 2010 270   121   119   14.0      5   0.83   1155   2254   2695    910   3408   7843   1295  208.0  0.344   4435      6  0.000  0.000  0.000  0.000  0.000  0.000  0.000   1.02  60.76   0.57      0   4435     71.9   1.05   0.00   1.20    2.15    2.16    2.41    1.78    1.70    1.66      0      0      0       0      98 19.62
 2010 271   122   120   14.0      5   0.83   1155   2254   2695    910   3408   7843   1295  208.0  0.344   4435      6  0.000  0.000  0.000  0.000  0.000  0.000  0.000   1.02  60.76   0.57      0   4435     71.9   1.05   0.00   1.20    2.17    2.18    2.43    1.78    1.71    1.68      0      0      0       0      98 17.75
 2010 272   123   121   14.0      5   0.83   1155   2254   2695    910   3408   7843   1295  208.0  0.344   4435      6  0.000  0.000  0.000  0.000  0.000  0.000  0.000   1.02  60.76   0.57      0   4435     71.9   1.05   0.00   1.20    2.19    2.20    2.45    1.79    1.72    1.69      0      0      0       0      98 16.75
 2010 273   124   122   14.0      5   0.83   1155   2254   2695    910   3408   7843   1295  208.0  0.344   4435      6  0.000  0.000  0.000  0.000  0.000  0.000  0.000   1.02  60.76   0.57      0   4435     71.9   1.05   0.00   1.20    2.21    2.21    2.47    1.80    1.73    1.71      0      0      0       0      98 17.75
 2010 274   125   123   14.0      5   0.83   1155   2254   2695    910   3408   7843   1295  208.0  0.344   4435      6  0.000  0.000  0.000  0.000  0.000  0.000  0.000   1.02  60.76   0.57      0   4435     71.9   1.05   0.00   1.20    2.24    2.23    2.49    1.80    1.74    1.72      0      0      0       0      98 19.25
 2010 275   126   124   14.0      5   0.83   1155   2254   2695    910   3408   7843   1295  208.0  0.344   4435      6  0.000  0.000  0.000  0.000  0.000  0.000  0.000   1.02  60.76   0.57      0   4435     71.9   1.05   0.00   1.20    2.25    2.25    2.51    1.81    1.75    1.74      0      0      0       0      98 18.00
 2010 276   127   125   14.0      5   0.83   1155   2254   2695    910   3408   7843   1295  208.0  0.344   4435      6  0.000  0.000  0.000  0.000  0.000  0.000  0.000   1.02  60.76   0.57      0   4435     71.9   1.05   0.00   1.20    2.27    2.27    2.53    1.82    1.76    1.75      0      0      0       0      98 16.75
 2010 277   128   126   14.0      5   0.83   1155   2254   2695    910   3408   7843   1295  208.0  0.344   4435      6  0.000  0.000  0.000  0.000  0.000  0.000  0.000   1.02  60.76   0.57      0   4435     71.9   1.05   0.00   1.20    2.29    2.30    2.55    1.82    1.77    1.77      0      0      0       0      98 18.50
 2010 278   129   127   14.0      5   0.83   1155   2254   2695    910   3408   7843   1295  208.0  0.344   4435      6  0.000  0.000  0.000  0.000  0.000  0.000  0.000   1.02  60.76   0.57      0   4435     71.9   1.05   0.00   1.20    2.32    2.32    2.57    1.83    1.78    1.78      0      0      0       0      98 18.38
 2010 279   130   128   14.0      5   0.83   1155   2254   2695    910   3408   7843   1295  208.0  0.344   4435      6  0.000  0.000  0.000  0.000  0.000  0.000  0.000   1.02  60.76   0.57      0   4435     71.9   1.05   0.00   1.20    2.34    2.34    2.59    1.83    1.79    1.79      0      0      0       0      98 17.62
 2010 280   131   129   14.0      5   0.83   1155   2254   2695    910   3408   7843   1295  208.0  0.344   4435      6  0.000  0.000  0.000  0.000  0.000  0.000  0.000   1.02  60.76   0.57      0   4435     71.9   1.05   0.00   1.20    2.36    2.36    2.61    1.84    1.80    1.81      0      0      0       0      98 18.38
 2010 281   132   130   14.0      5   0.83   1155   2254   2695    910   3408   7843   1295  208.0  0.344   4435      6  0.000  0.000  0.000  0.000  0.000  0.000  0.000   1.02  60.76   0.57      0   4435     71.9   1.05   0.00   1.20    2.38    2.38    2.63    1.85    1.81    1.82      0      0      0       0      98 17.25
 2010 282   133   131   14.0      5   0.83   1155   2254   2695    910   3408   7843   1295  208.0  0.344   4435      6  0.000  0.000  0.000  0.000  0.000  0.000  0.000   1.02  60.76   0.57      0   4435     71.9   1.05   0.00   1.20    2.40    2.41    2.65    1.85    1.82    1.83      0      0      0       0      98 17.88
 2010 283   134   132   14.0      5   0.83   1155   2254   2695    910   3408   7843   1295  208.0  0.344   4435      6  0.000  0.000  0.000  0.000  0.000  0.000  0.000   1.02  60.76   0.57      0   4435     71.9   1.05   0.00   1.20    2.42    2.43    2.67    1.86    1.82    1.85      0      0      0       0      98 19.12
 2010 284   135   133   14.0      5   0.83   1155   2254   2695    910   3408   7843   1295  208.0  0.344   4435      6  0.000  0.000  0.000  0.000  0.000  0.000  0.000   1.02  60.76   0.57      0   4435     71.9   1.05   0.00   1.20    2.45    2.45    2.70    1.86    1.83    1.86      0      0      0       0      98 16.75
 2010 285   136   134   14.0      5   0.83   1155   2254   2695    910   3408   7843   1295  208.0  0.344   4435      6  0.000  0.000  0.000  0.000  0.000  0.000  0.000   1.02  60.76   0.57      0   4435     71.9   1.05   0.00   1.20    2.44    2.46    2.71    1.87    1.85    1.88      0      0      0       0      98 18.38
 2010 286   137   135   14.0      5   0.83   1155   2254   2695    910   3408   7843   1295  208.0  0.344   4435      6  0.000  0.000  0.000  0.000  0.000  0.000  0.000   1.02  60.76   0.57      0   4435     71.9   1.05   0.00   1.20    2.44    2.47    2.72    1.88    1.86    1.89      0      0      0       0      98 17.75
 2010 287   138   136   14.0      5   0.83   1155   2254   2695    910   3408   7843   1295  208.0  0.344   4435      6  0.000  0.000  0.000  0.000  0.000  0.000  0.000   1.02  60.76   0.57      0   4435     71.9   1.05   0.00   1.20    2.44    2.47    2.73    1.89    1.87    1.91      0      0      0       0      98 18.75
 2010 288   139   137   14.0      5   0.83   1155   2254   2695    910   3408   7843   1295  208.0  0.344   4435      6  0.000  0.000  0.000  0.000  0.000  0.000  0.000   1.02  60.76   0.57      0   4435     71.9   1.05   0.00   1.20    2.44    2.48    2.74    1.90    1.89    1.92      0      0      0       0      98 19.00
 2010 289   140   138   14.0      5   0.83   1155   2254   2695    910   3408   7843   1295  208.0  0.344   4435      6  0.000  0.000  0.000  0.000  0.000  0.000  0.000   1.02  60.76   0.57      0   4435     71.9   1.05   0.00   1.20    2.44    2.48    2.75    1.91    1.90    1.94      0      0      0       0      98 17.15
 2010 290   141   139   14.0      5   0.83   1155   2254   2695    910   3408   7843   1295  208.0  0.344   4435      6  0.000  0.000  0.000  0.000  0.000  0.000  0.000   1.02  60.76   0.57      0   4435     71.9   1.05   0.00   1.20    2.45    2.49    2.76    1.92    1.91    1.96      0      0      0       0      98 19.38
 2010 291   142   140   14.0      5   0.83   1155   2254   2695    910   3408   7843   1295  208.0  0.344   4435      6  0.000  0.000  0.000  0.000  0.000  0.000  0.000   1.02  60.76   0.57      0   4435     71.9   1.05   0.00   1.20    2.46    2.50    2.78    1.93    1.93    1.97      0      0      0       0      98 19.46
 2010 292   143   141   14.0      5   0.83   1155   2254   2695    910   3408   7843   1295  208.0  0.344   4435      6  0.000  0.000  0.000  0.000  0.000  0.000  0.000   1.02  60.76   0.57      0   4435     71.9   1.05   0.00   1.20    2.47    2.51    2.79    1.94    1.94    1.99      0      0      0       0      98 19.75
 2010 293   144   142   14.0      5   0.83   1155   2254   2695    910   3408   7843   1295  208.0  0.344   4435      6  0.000  0.000  0.000  0.000  0.000  0.000  0.000   1.02  60.76   0.57      0   4435     71.9   1.05   0.00   1.20    2.48    2.52    2.80    1.95    1.95    2.00      0      0      0       0      98 19.38
 2010 294   145   143   14.0      5   0.83   1155   2254   2695    910   3408   7843   1295  208.0  0.344   4435      6  0.000  0.000  0.000  0.000  0.000  0.000  0.000   1.02  60.76   0.57      0   4435     71.9   1.05   0.00   1.20    2.49    2.53    2.81    1.96    1.96    2.02      0      0      0       0      98 19.22
 2010 295   146   144   14.0      5   0.83   1155   2254   2695    910   3408   7843   1295  208.0  0.344   4435      6  0.000  0.000  0.000  0.000  0.000  0.000  0.000   1.02  60.76   0.57      0   4435     71.9   1.05   0.00   1.20    2.50    2.54    2.83    1.97    1.97    2.03      0      0      0       0      98 18.00
 2010 296   147   145   14.0      5   0.83   1155   2254   2695    910   3408   7843   1295  208.0  0.344   4435      6  0.000  0.000  0.000  0.000  0.000  0.000  0.000   1.02  60.76   0.57      0   4435     71.9   1.05   0.00   1.20    2.51    2.55    2.84    1.97    1.99    2.04      0      0      0       0      98 19.07
