*SOM N DAILY OUTPUT FILE

*DSSAT Cropping System Model Ver. 4.7.2.000 -release      OCT 15, 2021; 17:59:34
                                                                                
*RUN   1        :             CSM335_date_1 MZCER047 ITSA1301    1              
 MODEL          : MZCER047 - Maize                                              
 EXPERIMENT     : ITSA1301 SG CALIBRATION SETUP OF SORGHUM SOWING DATES         
 DATA PATH      :                                                               
 TREATMENT  1   :             CSM335_date_1 MZCER047                            
  
!                                                                                                                                                                                                                                                                                                                                                                                                                                                Cumul.
!               <---- SOM N in top layers ----> <---------------- Total Soil Organic Nitrogen ----------------> <-------- Active Soil Organic Nitrogen (SOM1) --------> <---- Intermediate Soil Organic N (SOM2) -----> <------- Passive Soil Organic N (SOM3) -------> <----------------- Litter Nitrogen -------------------> <------------- Metabolic Litter Nitrogen -------------> <------------ Structural Litter Nitrogen ------------->  Res. N
!               20cm-kg  20cm-% 40cm-kg  40cm-%   Total Surface    Soil     0-5    5-15   15-30   30-60  60-120 Surface    Soil     0-5    5-15   15-30   30-60  60-120    Soil     0-5    5-15   15-30   30-60  60-120    Soil     0-5    5-15   15-30   30-60  60-120 Surface    Soil     0-5    5-15   15-30   30-60  60-120 Surface    Soil     0-5    5-15   15-30   30-60  60-120 Surface    Soil     0-5    5-15   15-30   30-60  60-120 (kg/ha)
@YEAR DOY   DAS  SNS20D  SN%20D  SNS40D  SN%40D    SOND    SN0D    SNTD    SN1D    SN2D    SN3D    SN4D   SN5+D   S1N0D   S1NTD   S1N1D   S1N2D   S1N3D   S1N4D  S1N5+D   S2NTD   S2N1D   S2N2D   S2N3D   S2N4D  S2N5+D   S3NTD   S3N1D   S3N2D   S3N3D   S3N4D  S3N5+D    LN0D    LNTD    LN1D    LN2D    LN3D    LN4D   LN5+D   MEN0D   MENTD   MEN1D   MEN2D   MEN3D   MEN4D  MEN5+D   STN0D   STNTD   STN1D   STN2D   STN3D   STN4D  STN5+D   RESNC
 2010 149     0    3529   0.106    2698   0.081   13704       0   13704     882    1765    2649    2800    5608       0     203      33      66      98       2       4    2266     366     733    1100      22      44   11230     483     966    1449    2775    5559    0.00    4.50    0.56    0.93    1.02    1.17    0.81    0.00    4.11    0.51    0.85    0.94    1.07    0.74    0.00    0.39    0.05    0.08    0.09    0.10    0.07       0
 2010 150     1    3526   0.106    2697   0.081   13701       0   13701     882    1764    2647    2800    5608       0     200      32      65      97       2       4    2266     366     733    1100      22      44   11230     483     966    1449    2775    5559    0.00    4.28    0.53    0.89    0.98    1.11    0.78    0.00    3.89    0.48    0.81    0.89    1.01    0.71    0.00    0.39    0.05    0.08    0.09    0.10    0.07       0
 2010 151     2    3524   0.106    2696   0.081   13697       0   13697     881    1763    2646    2800    5608       0     198      32      64      96       2       4    2265     366     733    1100      22      44   11230     483     966    1449    2774    5558    0.00    4.08    0.50    0.85    0.93    1.06    0.74    0.00    3.69    0.45    0.76    0.84    0.96    0.67    0.00    0.39    0.05    0.08    0.09    0.10    0.07       0
 2010 152     3    3521   0.106    2695   0.081   13692       0   13692     880    1761    2643    2800    5607       0     194      31      63      94       2       4    2264     366     732    1099      22      44   11230     483     966    1449    2774    5558    0.00    3.82    0.47    0.79    0.86    0.99    0.71    0.00    3.43    0.42    0.71    0.77    0.89    0.64    0.00    0.39    0.05    0.08    0.09    0.10    0.07       0
 2010 153     4    3518   0.106    2693   0.081   13687       0   13687     880    1760    2641    2800    5607       0     191      31      61      92       2       4    2263     366     732    1099      22      44   11230     483     966    1449    2774    5558    0.00    3.55    0.43    0.73    0.80    0.91    0.68    0.00    3.17    0.38    0.65    0.71    0.81    0.61    0.00    0.39    0.05    0.08    0.09    0.10    0.07       0
 2010 154     5    3515   0.106    2692   0.081   13683       0   13683     879    1758    2639    2800    5607       0     187      30      60      90       2       4    2262     366     732    1098      22      44   11230     483     966    1449    2774    5558    0.00    3.31    0.40    0.67    0.74    0.85    0.65    0.00    2.92    0.35    0.59    0.65    0.75    0.58    0.00    0.38    0.05    0.08    0.09    0.10    0.07       0
 2010 155     6    3513   0.106    2690   0.081   13679       0   13679     879    1757    2637    2800    5607       0     184      30      59      89       2       4    2262     366     732    1098      22      44   11230     483     966    1449    2774    5558    0.00    3.10    0.38    0.62    0.68    0.79    0.62    0.00    2.71    0.33    0.55    0.60    0.69    0.55    0.00    0.38    0.05    0.08    0.09    0.10    0.07       0
 2010 156     7    3511   0.106    2689   0.081   13675       0   13675     878    1755    2635    2799    5607       0     181      30      58      87       2       4    2261     366     731    1098      22      44   11230     483     966    1449    2774    5558    0.00    2.91    0.36    0.58    0.64    0.74    0.60    0.00    2.53    0.31    0.50    0.55    0.64    0.53    0.00    0.38    0.05    0.08    0.09    0.10    0.07       0
 2010 157     8    3509   0.106    2688   0.081   13671       0   13671     878    1754    2633    2799    5607       0     179      30      57      86       2       4    2260     366     731    1097      22      44   11230     483     966    1449    2774    5558    0.00    2.75    0.34    0.55    0.59    0.69    0.57    0.00    2.37    0.30    0.47    0.51    0.59    0.50    0.00    0.38    0.05    0.08    0.09    0.10    0.07       0
 2010 158     9    3507   0.106    2686   0.081   13668       0   13668     878    1753    2631    2799    5607       0     176      29      56      84       2       4    2260     365     731    1097      22      44   11229     483     966    1449    2774    5558    0.00    2.59    0.33    0.51    0.55    0.64    0.55    0.00    2.21    0.28    0.43    0.47    0.54    0.48    0.00    0.38    0.05    0.08    0.09    0.10    0.07       0
 2010 159    10    3504   0.106    2685   0.081   13664       0   13664     877    1752    2629    2799    5607       0     173      29      55      83       2       4    2259     365     731    1097      22      44   11229     483     966    1449    2774    5558    0.00    2.43    0.31    0.48    0.52    0.60    0.53    0.00    2.05    0.26    0.40    0.43    0.50    0.46    0.00    0.38    0.05    0.08    0.09    0.10    0.07       0
 2010 160    11    3502   0.105    2684   0.081   13660       0   13660     877    1750    2627    2799    5607       0     171      29      54      81       2       4    2258     365     730    1096      22      44   11229     483     966    1449    2774    5558    0.00    2.29    0.29    0.45    0.48    0.56    0.51    0.00    1.91    0.24    0.37    0.40    0.46    0.44    0.00    0.37    0.05    0.08    0.08    0.10    0.07       0
 2010 161    12    3500   0.105    2683   0.081   13657       0   13657     876    1749    2625    2799    5607       0     168      28      53      80       2       4    2257     365     730    1096      22      44   11229     483     966    1449    2774    5558    0.00    2.15    0.27    0.42    0.45    0.52    0.49    0.00    1.78    0.22    0.34    0.37    0.43    0.42    0.00    0.37    0.05    0.08    0.08    0.10    0.07       0
 2010 162    13    3498   0.105    2682   0.081   13653       0   13653     876    1748    2624    2799    5607       0     166      28      53      79       2       4    2256     365     730    1095      22      44   11229     483     966    1449    2774    5558    0.00    2.03    0.26    0.39    0.42    0.49    0.46    0.00    1.66    0.21    0.32    0.34    0.39    0.40    0.00    0.37    0.05    0.08    0.08    0.10    0.07       0
 2010 163    14    3496   0.105    2681   0.081   13650       0   13650     875    1747    2622    2799    5606       0     164      27      52      78       3       4    2256     365     730    1095      22      44   11229     483     966    1449    2774    5558    0.00    1.91    0.24    0.37    0.40    0.46    0.44    0.00    1.54    0.19    0.29    0.32    0.37    0.37    0.00    0.37    0.05    0.08    0.08    0.10    0.07       0
 2010 164    15    3494   0.105    2680   0.081   13647       0   13647     875    1746    2621    2799    5606       0     162      27      51      77       3       4    2255     365     729    1095      22      44   11229     483     966    1449    2774    5558    0.00    1.81    0.23    0.35    0.38    0.44    0.42    0.00    1.45    0.18    0.27    0.29    0.34    0.36    0.00    0.37    0.05    0.08    0.08    0.10    0.07       0
 2010 165    16    3492   0.105    2679   0.081   13644       0   13644     874    1746    2620    2799    5606       0     160      27      51      76       3       4    2254     365     729    1094      22      44   11229     483     966    1449    2774    5558    0.00    1.72    0.22    0.33    0.36    0.41    0.40    0.00    1.36    0.17    0.26    0.27    0.32    0.34    0.00    0.37    0.05    0.08    0.08    0.09    0.07       0
 2010 166    17    3491   0.105    2678   0.081   13642       0   13642     874    1745    2618    2799    5606       0     158      26      50      75       3       4    2253     365     729    1094      22      44   11229     483     966    1449    2774    5558    0.00    1.64    0.21    0.32    0.34    0.39    0.39    0.00    1.28    0.17    0.24    0.25    0.30    0.32    0.00    0.37    0.05    0.08    0.08    0.09    0.07       0
 2010 167    18    3489   0.105    2677   0.081   13639       0   13639     874    1744    2617    2799    5606       0     156      26      49      74       3       4    2253     364     729    1093      22      44   11228     483     966    1449    2774    5558    0.00    1.56    0.21    0.30    0.32    0.37    0.37    0.00    1.20    0.16    0.22    0.24    0.27    0.30    0.00    0.36    0.05    0.08    0.08    0.09    0.07       0
 2010 168    19    3487   0.105    2676   0.081   13636       0   13636     873    1743    2616    2799    5606       0     154      26      49      73       3       4    2252     364     728    1093      22      44   11228     483     966    1449    2774    5557    0.00    1.48    0.20    0.28    0.30    0.35    0.35    0.00    1.12    0.16    0.21    0.22    0.25    0.29    0.00    0.36    0.05    0.07    0.08    0.09    0.07       0
 2010 169    20    3485   0.105    2675   0.081   13633       0   13633     873    1742    2614    2799    5606       0     153      26      48      72       3       4    2251     364     728    1092      22      44   11228     483     966    1449    2774    5557    0.00    1.40    0.19    0.27    0.28    0.33    0.34    0.00    1.04    0.14    0.19    0.20    0.23    0.27    0.00    0.36    0.05    0.07    0.08    0.09    0.07       0
 2010 170    21    3484   0.105    2674   0.081   13630       0   13630     872    1741    2613    2798    5606       0     151      25      47      72       3       4    2250     364     728    1092      22      44   11228     483     966    1449    2774    5557    0.00    1.33    0.18    0.25    0.27    0.31    0.32    0.00    0.97    0.13    0.18    0.19    0.22    0.25    0.00    0.36    0.05    0.07    0.08    0.09    0.07       0
 2010 171    22    3482   0.105    2674   0.081   13628       0   13628     872    1740    2612    2798    5606       0     149      25      47      71       3       4    2249     364     727    1092      22      44   11228     483     966    1449    2774    5557    0.00    1.27    0.17    0.24    0.26    0.29    0.31    0.00    0.91    0.13    0.17    0.17    0.20    0.24    0.00    0.36    0.05    0.07    0.08    0.09    0.07       0
 2010 172    23    3480   0.105    2673   0.081   13625       0   13625     871    1739    2611    2798    5606       0     148      25      46      70       3       4    2248     364     727    1091      22      44   11228     483     966    1449    2773    5557    0.00    1.21    0.17    0.23    0.24    0.28    0.29    0.00    0.86    0.12    0.16    0.16    0.19    0.23    0.00    0.36    0.05    0.07    0.08    0.09    0.07       0
 2010 173    24    3479   0.105    2672   0.080   13623       0   13623     871    1739    2609    2798    5605       0     146      24      46      69       2       4    2247     364     727    1091      22      44   11228     483     966    1449    2773    5557    0.00    1.16    0.16    0.22    0.23    0.27    0.28    0.00    0.81    0.11    0.15    0.15    0.17    0.22    0.00    0.36    0.04    0.07    0.08    0.09    0.07       0
 2010 174    25    3477   0.105    2671   0.080   13620       0   13620     871    1738    2608    2798    5605       0     145      24      45      69       2       4    2247     364     727    1090      22      44   11228     483     966    1449    2773    5557    0.00    1.11    0.15    0.21    0.22    0.25    0.27    0.00    0.76    0.11    0.14    0.14    0.16    0.21    0.00    0.35    0.04    0.07    0.08    0.09    0.07       0
 2010 175    26    3476   0.105    2671   0.080   13618       0   13618     870    1737    2607    2798    5605       0     143      24      45      68       2       4    2246     364     726    1090      22      44   11228     483     966    1449    2773    5557    0.00    1.07    0.15    0.21    0.21    0.24    0.26    0.00    0.72    0.10    0.13    0.13    0.15    0.19    0.00    0.35    0.04    0.07    0.08    0.09    0.07       0
 2010 176    27    3474   0.105    2670   0.080   13615       0   13615     870    1736    2606    2798    5605       0     142      24      45      68       2       4    2245     363     726    1089      22      44   11227     483     966    1449    2773    5557    0.00    1.02    0.14    0.20    0.21    0.23    0.25    0.00    0.67    0.10    0.12    0.13    0.14    0.18    0.00    0.35    0.04    0.07    0.08    0.09    0.06       0
 2010 177    28    3472   0.105    2669   0.080   13612       0   13612     869    1735    2605    2798    5605       0     140      23      44      67       2       4    2244     363     726    1089      22      44   11227     483     966    1449    2773    5557    0.00    0.98    0.14    0.19    0.20    0.22    0.24    0.00    0.63    0.09    0.12    0.12    0.13    0.17    0.00    0.35    0.04    0.07    0.08    0.09    0.06       0
 2010 178    29    3471   0.105    2668   0.080   13610       0   13610     869    1734    2604    2798    5605       0     139      23      43      66       2       4    2243     363     725    1088      22      44   11227     483     966    1449    2773    5557    0.00    0.94    0.13    0.18    0.19    0.21    0.23    0.00    0.59    0.09    0.11    0.11    0.12    0.16    0.00    0.35    0.04    0.07    0.08    0.09    0.06       0
 2010 179    30    3469   0.104    2668   0.080   13607       0   13607     868    1734    2603    2798    5605       0     138      22      43      66       2       4    2242     363     725    1088      22      44   11227     483     966    1449    2773    5557    0.00    0.91    0.13    0.18    0.18    0.20    0.22    0.00    0.56    0.08    0.10    0.11    0.12    0.15    0.00    0.35    0.04    0.07    0.08    0.09    0.06       0
 2010 180    31    3467   0.104    2667   0.080   13605       0   13605     868    1733    2602    2798    5605       0     136      22      42      65       2       4    2241     363     725    1087      22      44   11227     483     966    1449    2773    5557    0.00    0.87    0.12    0.17    0.18    0.20    0.21    0.00    0.53    0.08    0.10    0.10    0.11    0.15    0.00    0.35    0.04    0.07    0.08    0.09    0.06       0
 2010 181    32    3466   0.104    2666   0.080   13602       0   13602     867    1732    2601    2798    5605       0     135      22      42      65       2       4    2240     363     724    1087      22      44   11227     483     966    1449    2773    5557    0.00    0.85    0.12    0.16    0.17    0.19    0.20    0.00    0.50    0.07    0.09    0.10    0.10    0.14    0.00    0.35    0.04    0.07    0.08    0.09    0.06       0
 2010 182    33    3464   0.104    2666   0.080   13600       0   13600     867    1731    2600    2798    5604       0     133      21      41      64       2       4    2239     363     724    1086      22      44   11227     483     966    1449    2773    5556    0.00    0.82    0.11    0.16    0.17    0.19    0.19    0.00    0.48    0.07    0.09    0.09    0.10    0.13    0.00    0.34    0.04    0.07    0.08    0.09    0.06       0
 2010 183    34    3463   0.104    2665   0.080   13597       0   13597     866    1730    2599    2798    5604       0     132      21      41      64       2       4    2238     362     724    1086      22      44   11226     483     966    1449    2773    5556    0.00    0.80    0.11    0.16    0.17    0.18    0.19    0.00    0.46    0.07    0.09    0.09    0.10    0.12    0.00    0.34    0.04    0.07    0.08    0.09    0.06       0
 2010 184    35    3461   0.104    2664   0.080   13595       0   13595     866    1729    2598    2798    5604       0     131      21      40      63       2       4    2237     362     723    1085      22      44   11226     483     966    1449    2773    5556    0.00    0.79    0.11    0.15    0.16    0.18    0.18    0.00    0.44    0.06    0.08    0.09    0.09    0.12    0.00    0.34    0.04    0.07    0.08    0.09    0.06       0
 2010 185    36    3460   0.104    2664   0.080   13593       0   13593     866    1729    2597    2798    5604       0     130      21      40      63       2       4    2236     362     723    1085      22      44   11226     483     966    1449    2773    5556    0.00    0.77    0.11    0.15    0.16    0.18    0.17    0.00    0.43    0.06    0.08    0.08    0.09    0.11    0.00    0.34    0.04    0.07    0.08    0.09    0.06       0
 2010 186    37    3459   0.104    2663   0.080   13591       0   13591     865    1728    2596    2797    5604       0     129      21      40      63       2       4    2235     362     723    1084      22      44   11226     483     966    1449    2773    5556    0.00    0.76    0.11    0.15    0.16    0.18    0.17    0.00    0.42    0.06    0.08    0.08    0.09    0.11    0.00    0.34    0.04    0.07    0.08    0.09    0.06       0
 2010 187    38    3458   0.104    2663   0.080   13589       0   13589     865    1727    2595    2797    5604       0     128      21      39      62       2       4    2235     362     723    1084      22      44   11226     483     966    1449    2773    5556    0.00    0.75    0.11    0.15    0.16    0.17    0.17    0.00    0.41    0.06    0.08    0.08    0.09    0.10    0.00    0.34    0.04    0.07    0.08    0.09    0.06       0
 2010 188    39    3457   0.104    2662   0.080   13588       0   13588     865    1727    2595    2797    5604       0     127      20      39      62       2       4    2234     362     722    1084      22      44   11226     483     966    1449    2773    5556    0.00    0.75    0.11    0.15    0.16    0.17    0.16    0.00    0.41    0.06    0.08    0.08    0.09    0.10    0.00    0.34    0.04    0.07    0.08    0.09    0.06       0
 2010 189    40    3456   0.104    2662   0.080   13586       0   13586     865    1726    2594    2797    5604       0     126      20      38      61       2       4    2233     362     722    1083      22      44   11226     483     966    1449    2773    5556    0.00    0.74    0.11    0.15    0.16    0.17    0.16    0.00    0.40    0.06    0.08    0.08    0.09    0.10    0.00    0.34    0.04    0.07    0.08    0.09    0.06       0
 2010 190    41    3455   0.104    2661   0.080   13584       0   13584     865    1726    2593    2797    5603       0     126      20      38      61       2       4    2233     362     722    1083      22      44   11226     483     966    1449    2773    5556    0.00    0.74    0.11    0.15    0.16    0.17    0.16    0.00    0.40    0.06    0.08    0.08    0.09    0.10    0.00    0.34    0.04    0.07    0.08    0.09    0.06       0
 2010 191    42    3454   0.104    2661   0.080   13583       0   13583     865    1725    2592    2797    5603       0     125      20      38      61       2       4    2232     362     722    1082      22      44   11225     483     966    1449    2773    5556    0.00    0.74    0.11    0.15    0.16    0.17    0.16    0.00    0.40    0.06    0.08    0.08    0.09    0.09    0.00    0.34    0.04    0.07    0.08    0.09    0.06       0
 2010 192    43    3453   0.104    2660   0.080   13581       0   13581     864    1725    2592    2797    5603       0     124      20      38      60       2       4    2231     362     722    1082      22      44   11225     483     966    1449    2773    5556    0.00    0.74    0.10    0.15    0.16    0.17    0.15    0.00    0.40    0.06    0.08    0.08    0.09    0.09    0.00    0.34    0.04    0.07    0.08    0.09    0.06       0
 2010 193    44    3452   0.104    2659   0.080   13579       0   13579     864    1724    2591    2797    5603       0     123      20      37      60       2       4    2230     362     721    1082      22      44   11225     483     965    1449    2773    5556    0.00    0.73    0.10    0.14    0.16    0.17    0.15    0.00    0.39    0.06    0.07    0.08    0.09    0.09    0.00    0.34    0.04    0.07    0.08    0.09    0.06       0
 2010 194    45    3450   0.104    2659   0.080   13577       0   13577     864    1723    2590    2797    5603       0     122      20      37      60       2       4    2229     361     721    1081      22      44   11225     483     965    1449    2772    5555    0.00    0.73    0.10    0.14    0.16    0.17    0.15    0.00    0.39    0.06    0.07    0.08    0.09    0.09    0.00    0.34    0.04    0.07    0.08    0.09    0.06       0
 2010 195    46    3449   0.104    2658   0.080   13575       0   13575     864    1723    2589    2797    5603       0     121      20      36      59       2       3    2228     361     721    1080      22      44   11225     483     965    1449    2772    5555    0.00    0.72    0.10    0.14    0.16    0.17    0.15    0.00    0.38    0.06    0.07    0.08    0.09    0.09    0.00    0.34    0.04    0.07    0.08    0.09    0.06       0
 2010 196    47    3447   0.104    2658   0.080   13573       0   13573     863    1722    2588    2797    5603       0     120      20      36      59       2       3    2227     361     720    1080      22      44   11225     483     965    1449    2772    5555    0.00    0.71    0.10    0.14    0.16    0.17    0.15    0.00    0.37    0.05    0.07    0.08    0.09    0.08    0.00    0.34    0.04    0.07    0.08    0.09    0.06       0
 2010 197    48    3446   0.104    2657   0.080   13571       0   13571     863    1721    2587    2797    5603       0     119      19      36      58       2       3    2226     361     720    1079      22      44   11225     483     965    1449    2772    5555    0.00    0.71    0.10    0.14    0.16    0.17    0.15    0.00    0.37    0.05    0.07    0.08    0.09    0.08    0.00    0.34    0.04    0.07    0.08    0.09    0.06       0
 2010 198    49    3445   0.104    2656   0.080   13568       0   13568     863    1720    2586    2797    5602       0     118      19      35      58       2       3    2225     361     720    1079      22      44   11224     483     965    1449    2772    5555    0.00    0.70    0.09    0.14    0.16    0.17    0.14    0.00    0.36    0.05    0.07    0.08    0.09    0.08    0.00    0.34    0.04    0.07    0.08    0.09    0.06       0
 2010 199    50    3444   0.104    2656   0.080   13566       0   13566     862    1720    2585    2797    5602       0     117      19      35      58       2       3    2224     361     719    1078      22      44   11224     483     965    1449    2772    5555    0.00    0.70    0.09    0.14    0.16    0.17    0.14    0.00    0.36    0.05    0.07    0.08    0.09    0.08    0.00    0.34    0.04    0.07    0.08    0.09    0.06       0
 2010 200    51    3442   0.104    2655   0.080   13565       0   13565     862    1719    2584    2797    5602       0     117      19      34      57       2       3    2223     361     719    1078      22      44   11224     483     965    1449    2772    5555    0.00    0.70    0.09    0.14    0.16    0.18    0.14    0.00    0.36    0.05    0.07    0.08    0.09    0.08    0.00    0.34    0.04    0.07    0.08    0.09    0.06       0
 2010 201    52    3441   0.104    2654   0.080   13563       0   13563     862    1718    2584    2797    5602       0     116      19      34      57       2       3    2222     360     719    1078      22      44   11224     483     965    1449    2772    5555    0.00    0.70    0.09    0.14    0.16    0.18    0.14    0.00    0.36    0.05    0.07    0.08    0.09    0.08    0.00    0.34    0.04    0.07    0.08    0.09    0.06       0
 2010 202    53    3440   0.104    2654   0.080   13561       0   13561     862    1718    2583    2797    5602       0     115      19      34      57       2       3    2221     360     718    1077      22      44   11224     483     965    1449    2772    5555    0.00    0.71    0.09    0.14    0.16    0.18    0.14    0.00    0.37    0.05    0.07    0.08    0.09    0.08    0.00    0.34    0.04    0.07    0.08    0.09    0.06       0
 2010 203    54    3439   0.104    2654   0.080   13560       0   13560     862    1717    2582    2797    5602       0     115      19      34      56       3       3    2221     360     718    1077      22      44   11224     483     965    1449    2772    5555    0.00    0.71    0.09    0.14    0.16    0.18    0.14    0.00    0.37    0.05    0.07    0.08    0.09    0.08    0.00    0.34    0.04    0.07    0.08    0.09    0.06       0
 2010 204    55    3438   0.104    2653   0.080   13558       0   13558     861    1717    2582    2797    5602       0     114      19      33      56       3       3    2220     360     718    1076      22      44   11224     483     965    1449    2772    5555    0.00    0.72    0.09    0.14    0.16    0.18    0.15    0.00    0.38    0.05    0.07    0.08    0.10    0.08    0.00    0.34    0.04    0.07    0.08    0.09    0.06       0
 2010 205    56    3437   0.104    2653   0.080   13556       0   13556     861    1716    2581    2797    5602       0     113      18      33      56       3       3    2219     360     718    1076      22      44   11224     483     965    1449    2772    5555    0.00    0.69    0.09    0.13    0.16    0.18    0.14    0.00    0.35    0.05    0.06    0.08    0.09    0.08    0.00    0.34    0.04    0.07    0.08    0.09    0.06       0
 2010 206    57    3436   0.103    2652   0.080   13555       0   13555     861    1716    2580    2797    5602       0     113      18      33      56       3       3    2218     360     717    1075      22      44   11223     483     965    1449    2772    5554    0.00    0.70    0.09    0.13    0.16    0.18    0.14    0.00    0.36    0.04    0.06    0.08    0.09    0.08    0.00    0.34    0.04    0.07    0.08    0.09    0.06       0
 2010 207    58    3435   0.103    2652   0.080   13553       0   13553     860    1715    2579    2797    5601       0     112      18      33      55       3       3    2217     360     717    1075      22      44   11223     483     965    1449    2772    5554    0.00    0.70    0.09    0.13    0.16    0.18    0.14    0.00    0.36    0.04    0.06    0.08    0.09    0.08    0.00    0.34    0.04    0.07    0.08    0.09    0.06       0
 2010 208    59    3433   0.103    2651   0.080   13551       0   13551     860    1714    2578    2797    5601       0     111      18      32      55       3       3    2216     359     717    1074      22      44   11223     483     965    1449    2772    5554    0.00    0.71    0.09    0.13    0.16    0.18    0.14    0.00    0.37    0.04    0.06    0.08    0.10    0.08    0.00    0.34    0.04    0.07    0.08    0.09    0.06       0
 2010 209    60    3432   0.103    2650   0.080   13549       0   13549     860    1714    2578    2796    5601       0     110      18      32      55       3       3    2215     359     716    1074      22      44   11223     483     965    1449    2772    5554    0.00    0.72    0.09    0.14    0.16    0.19    0.15    0.00    0.38    0.04    0.07    0.08    0.10    0.08    0.00    0.34    0.04    0.07    0.08    0.09    0.06       0
 2010 210    61    3431   0.103    2650   0.080   13547       0   13547     859    1713    2577    2796    5601       0     109      17      32      54       3       3    2214     359     716    1074      22      44   11223     483     965    1449    2772    5554    0.00    0.69    0.08    0.13    0.16    0.18    0.14    0.00    0.35    0.04    0.06    0.08    0.09    0.08    0.00    0.34    0.04    0.07    0.08    0.09    0.06       0
 2010 211    62    3430   0.103    2649   0.080   13545       0   13545     859    1713    2576    2796    5601       0     108      17      31      54       3       3    2213     359     716    1073      22      44   11223     483     965    1449    2772    5554    0.00    0.67    0.08    0.13    0.15    0.17    0.14    0.00    0.33    0.04    0.06    0.08    0.09    0.07    0.00    0.34    0.04    0.07    0.08    0.09    0.06       0
 2010 212    63    3429   0.103    2649   0.080   13543       0   13543     858    1712    2575    2796    5601       0     107      17      31      53       3       3    2213     359     715    1073      22      44   11223     483     965    1449    2772    5554    0.00    0.65    0.08    0.12    0.15    0.17    0.13    0.00    0.31    0.04    0.05    0.07    0.08    0.07    0.00    0.34    0.04    0.07    0.08    0.09    0.06       0
 2010 213    64    3427   0.103    2648   0.080   13541       0   13541     858    1711    2574    2796    5601       0     106      17      31      53       3       3    2212     359     715    1072      22      44   11222     483     965    1449    2772    5554    0.00    0.63    0.08    0.12    0.14    0.16    0.13    0.00    0.29    0.03    0.05    0.07    0.08    0.06    0.00    0.34    0.04    0.07    0.08    0.09    0.06       0
 2010 214    65    3426   0.103    2647   0.080   13539       0   13539     858    1711    2573    2796    5601       0     105      17      30      52       3       3    2211     359     715    1072      22      44   11222     483     965    1449    2772    5554    0.00    0.61    0.08    0.12    0.14    0.16    0.12    0.00    0.28    0.03    0.05    0.06    0.07    0.06    0.00    0.33    0.04    0.07    0.08    0.09    0.06       0
 2010 215    66    3425   0.103    2647   0.080   13536       0   13536     857    1710    2572    2796    5601       0     104      16      30      52       3       3    2210     358     714    1071      22      44   11222     483     965    1449    2772    5554    0.00    0.59    0.07    0.11    0.13    0.15    0.12    0.00    0.26    0.03    0.05    0.06    0.07    0.06    0.00    0.33    0.04    0.07    0.08    0.09    0.06       0
 2010 216    67    3423   0.103    2646   0.080   13534       0   13534     857    1709    2571    2796    5601       0     103      16      30      51       3       3    2208     358     714    1071      22      44   11222     483     965    1449    2772    5554    0.00    0.57    0.07    0.11    0.13    0.15    0.11    0.00    0.24    0.03    0.04    0.05    0.06    0.05    0.00    0.33    0.04    0.07    0.08    0.09    0.06       0
 2010 217    68    3422   0.103    2645   0.080   13532       0   13532     857    1709    2570    2796    5601       0     102      16      29      50       3       3    2207     358     714    1070      22      44   11222     483     965    1449    2772    5554    0.00    0.56    0.07    0.11    0.13    0.14    0.11    0.00    0.23    0.03    0.04    0.05    0.06    0.05    0.00    0.33    0.04    0.07    0.07    0.08    0.06       0
 2010 218    69    3420   0.103    2644   0.080   13529       0   13529     856    1708    2569    2796    5600       0     101      16      29      50       3       3    2206     358     713    1070      22      44   11222     483     965    1449    2771    5553    0.00    0.54    0.07    0.10    0.12    0.14    0.11    0.00    0.21    0.03    0.04    0.05    0.05    0.05    0.00    0.33    0.04    0.07    0.07    0.08    0.06       0
 2010 219    70    3419   0.103    2644   0.080   13527       0   13527     856    1707    2568    2796    5600       0     100      16      29      49       3       3    2205     358     713    1069      22      43   11222     483     965    1449    2771    5553    0.00    0.52    0.07    0.10    0.12    0.13    0.10    0.00    0.20    0.02    0.04    0.05    0.05    0.04    0.00    0.33    0.04    0.07    0.07    0.08    0.06       0
 2010 220    71    3418   0.103    2643   0.080   13525       0   13525     856    1707    2566    2796    5600       0      99      15      28      49       3       3    2204     358     713    1069      22      43   11221     483     965    1449    2771    5553    0.00    0.51    0.06    0.10    0.12    0.13    0.10    0.00    0.18    0.02    0.03    0.04    0.05    0.04    0.00    0.33    0.04    0.07    0.07    0.08    0.06       0
 2010 221    72    3416   0.103    2642   0.080   13523       0   13523     855    1706    2565    2796    5600       0      98      15      28      48       2       3    2203     357     712    1068      22      43   11221     483     965    1449    2771    5553    0.00    0.50    0.06    0.10    0.11    0.13    0.10    0.00    0.17    0.02    0.03    0.04    0.04    0.04    0.00    0.32    0.04    0.07    0.07    0.08    0.06       0
 2010 222    73    3415   0.103    2641   0.080   13520       0   13520     855    1705    2564    2796    5600       0      97      15      28      48       2       3    2202     357     712    1068      22      43   11221     483     965    1449    2771    5553    0.00    0.48    0.06    0.09    0.11    0.12    0.09    0.00    0.16    0.02    0.03    0.04    0.04    0.03    0.00    0.32    0.04    0.07    0.07    0.08    0.06       0
 2010 223    74    3413   0.103    2641   0.080   13518       0   13518     855    1705    2563    2796    5600       0      96      15      28      47       2       3    2201     357     712    1067      22      43   11221     483     965    1449    2771    5553    0.00    0.47    0.06    0.09    0.11    0.12    0.09    0.00    0.15    0.02    0.03    0.03    0.04    0.03    0.00    0.32    0.04    0.07    0.07    0.08    0.06       0
 2010 224    75    3412   0.103    2640   0.080   13516       0   13516     854    1704    2562    2796    5600       0      95      15      27      47       2       4    2200     357     711    1067      22      43   11221     483     965    1449    2771    5553    0.00    0.46    0.06    0.09    0.10    0.12    0.09    0.00    0.14    0.02    0.03    0.03    0.04    0.03    0.00    0.32    0.04    0.07    0.07    0.08    0.06       0
 2010 225    76    3411   0.103    2639   0.079   13514       0   13514     854    1703    2561    2796    5600       0      94      15      27      46       2       4    2199     357     711    1066      22      43   11221     482     965    1449    2771    5553    0.00    0.45    0.06    0.09    0.10    0.12    0.09    0.00    0.13    0.02    0.02    0.03    0.03    0.03    0.00    0.32    0.04    0.07    0.07    0.08    0.06       0
 2010 226    77    3410   0.103    2639   0.079   13512       0   13512     854    1703    2560    2796    5600       0      93      14      27      46       2       4    2198     357     711    1066      22      43   11221     482     965    1449    2771    5553    0.00    0.44    0.06    0.09    0.10    0.11    0.09    0.00    0.12    0.02    0.02    0.03    0.03    0.03    0.00    0.32    0.04    0.07    0.07    0.08    0.06       0
 2010 227    78    3409   0.103    2638   0.079   13510       0   13510     853    1702    2560    2795    5600       0      92      14      27      45       2       4    2197     356     710    1065      22      43   11221     482     965    1449    2771    5553    0.00    0.44    0.05    0.09    0.10    0.11    0.08    0.00    0.12    0.01    0.02    0.03    0.03    0.03    0.00    0.32    0.04    0.06    0.07    0.08    0.06       0
 2010 228    79    3407   0.103    2637   0.079   13508       0   13508     853    1702    2559    2795    5600       0      91      14      26      45       2       4    2196     356     710    1065      22      43   11220     482     965    1449    2771    5553    0.00    0.43    0.05    0.08    0.10    0.11    0.08    0.00    0.11    0.01    0.02    0.03    0.03    0.02    0.00    0.32    0.04    0.06    0.07    0.08    0.06       0
 2010 229    80    3406   0.103    2637   0.079   13506       0   13506     853    1701    2558    2795    5599       0      91      14      26      45       2       4    2195     356     710    1064      22      43   11220     482     965    1449    2771    5553    0.00    0.42    0.05    0.08    0.10    0.11    0.08    0.00    0.10    0.01    0.02    0.02    0.03    0.02    0.00    0.31    0.04    0.06    0.07    0.08    0.06       0
 2010 230    81    3405   0.103    2636   0.079   13504       0   13504     852    1701    2557    2795    5599       0      90      14      26      44       2       4    2194     356     709    1064      22      43   11220     482     965    1449    2771    5552    0.00    0.41    0.05    0.08    0.09    0.11    0.08    0.00    0.10    0.01    0.02    0.02    0.02    0.02    0.00    0.31    0.04    0.06    0.07    0.08    0.06       0
 2010 231    82    3404   0.103    2635   0.079   13502       0   13502     852    1700    2556    2795    5599       0      89      14      26      44       2       4    2193     356     709    1063      22      43   11220     482     965    1449    2771    5552    0.00    0.40    0.05    0.08    0.09    0.10    0.08    0.00    0.09    0.01    0.02    0.02    0.02    0.02    0.00    0.31    0.04    0.06    0.07    0.08    0.06       0
 2010 232    83    3402   0.102    2635   0.079   13500       0   13500     852    1699    2555    2795    5599       0      88      14      25      43       2       3    2192     356     708    1063      22      43   11220     482     965    1449    2771    5552    0.00    0.40    0.05    0.08    0.09    0.10    0.08    0.00    0.09    0.01    0.02    0.02    0.02    0.02    0.00    0.31    0.04    0.06    0.07    0.08    0.06       0
 2010 233    84    3401   0.102    2634   0.079   13498       0   13498     851    1699    2554    2795    5599       0      87      13      25      43       2       3    2190     355     708    1062      22      43   11220     482     965    1449    2771    5552    0.00    0.39    0.05    0.08    0.09    0.10    0.07    0.00    0.08    0.01    0.01    0.02    0.02    0.02    0.00    0.31    0.04    0.06    0.07    0.08    0.06       0
 2010 234    85    3400   0.102    2633   0.079   13496       0   13496     851    1698    2553    2795    5599       0      86      13      25      42       2       3    2189     355     708    1061      22      43   11220     482     965    1449    2771    5552    0.00    0.38    0.05    0.08    0.09    0.10    0.07    0.00    0.07    0.01    0.01    0.02    0.02    0.02    0.00    0.31    0.04    0.06    0.07    0.08    0.06       0
 2010 235    86    3399   0.102    2633   0.079   13493       0   13493     851    1697    2552    2795    5599       0      85      13      25      42       2       3    2188     355     707    1061      22      43   11219     482     965    1449    2771    5552    0.00    0.41    0.05    0.08    0.09    0.10    0.08    0.00    0.10    0.01    0.02    0.02    0.02    0.02    0.00    0.31    0.04    0.06    0.07    0.08    0.06       0
 2010 236    87    3397   0.102    2632   0.079   13491       0   13491     850    1697    2551    2795    5599       0      85      13      24      42       2       3    2187     355     707    1060      22      43   11219     482     965    1449    2771    5552    0.00    0.44    0.05    0.08    0.10    0.11    0.10    0.00    0.13    0.01    0.02    0.03    0.03    0.04    0.00    0.31    0.04    0.06    0.07    0.08    0.06       0
 2010 237    88    3396   0.102    2631   0.079   13489       0   13489     850    1696    2550    2795    5599       0      84      13      24      41       2       3    2186     355     707    1060      22      43   11219     482     965    1449    2771    5552    0.00    0.48    0.05    0.09    0.10    0.12    0.11    0.00    0.17    0.01    0.02    0.03    0.04    0.05    0.00    0.31    0.04    0.06    0.07    0.08    0.06       0
 2010 238    89    3395   0.102    2631   0.079   13488       0   13488     850    1696    2549    2795    5599       0      83      13      24      41       2       3    2185     354     706    1059      22      43   11219     482     965    1449    2771    5552    0.00    0.52    0.05    0.09    0.11    0.13    0.13    0.00    0.20    0.02    0.03    0.04    0.05    0.07    0.00    0.31    0.04    0.06    0.07    0.08    0.06       0
 2010 239    90    3394   0.102    2630   0.079   13486       0   13486     850    1695    2548    2795    5598       0      83      13      24      40       2       3    2184     354     706    1059      22      43   11219     482     965    1449    2771    5552    0.00    0.55    0.06    0.09    0.11    0.14    0.14    0.00    0.23    0.02    0.03    0.04    0.06    0.08    0.00    0.32    0.04    0.06    0.07    0.08    0.06       0
 2010 240    91    3393   0.102    2629   0.079   13484       0   13484     849    1695    2547    2795    5598       0      82      13      24      40       2       3    2183     354     706    1058      22      43   11219     482     965    1449    2771    5552    0.00    0.58    0.06    0.10    0.12    0.15    0.16    0.00    0.26    0.02    0.03    0.05    0.07    0.10    0.00    0.32    0.04    0.06    0.07    0.08    0.06       0
 2010 241    92    3392   0.102    2629   0.079   13482       0   13482     849    1694    2546    2795    5598       0      81      12      23      40       2       3    2182     354     705    1058      22      43   11219     482     965    1449    2771    5552    0.00    0.61    0.06    0.10    0.12    0.16    0.17    0.00    0.29    0.02    0.04    0.05    0.08    0.11    0.00    0.32    0.04    0.06    0.07    0.08    0.06       0
 2010 242    93    3390   0.102    2628   0.079   13480       0   13480     849    1693    2545    2794    5598       0      81      12      23      39       2       3    2180     354     705    1057      22      43   11218     482     965    1449    2770    5551    0.00    0.64    0.06    0.10    0.13    0.16    0.18    0.00    0.32    0.02    0.04    0.06    0.08    0.12    0.00    0.32    0.04    0.06    0.07    0.08    0.06       0
 2010 243    94    3389   0.102    2628   0.079   13478       0   13478     848    1693    2544    2794    5598       0      80      12      23      39       2       3    2179     354     704    1056      22      43   11218     482     965    1449    2770    5551    0.00    0.66    0.06    0.10    0.13    0.17    0.19    0.00    0.34    0.02    0.04    0.06    0.09    0.13    0.00    0.32    0.04    0.06    0.07    0.08    0.06       0
 2010 244    95    3388   0.102    2627   0.079   13476       0   13476     848    1692    2544    2794    5598       0      79      12      23      39       2       3    2178     353     704    1056      22      43   11218     482     965    1449    2770    5551    0.00    0.64    0.06    0.10    0.13    0.17    0.18    0.00    0.32    0.02    0.04    0.06    0.08    0.12    0.00    0.32    0.04    0.06    0.07    0.08    0.06       0
 2010 245    96    3387   0.102    2626   0.079   13475       0   13475     848    1692    2543    2794    5598       0      79      12      23      39       2       3    2177     353     704    1055      22      43   11218     482     965    1449    2770    5551    0.00    0.62    0.06    0.10    0.13    0.16    0.18    0.00    0.30    0.02    0.04    0.05    0.08    0.11    0.00    0.32    0.04    0.06    0.07    0.08    0.06       0
 2010 246    97    3386   0.102    2626   0.079   13473       0   13473     848    1691    2542    2794    5598       0      78      12      23      38       2       3    2176     353     703    1055      22      43   11218     482     965    1449    2770    5551    0.00    0.60    0.06    0.10    0.12    0.15    0.17    0.00    0.28    0.02    0.03    0.05    0.07    0.10    0.00    0.32    0.04    0.06    0.07    0.08    0.06       0
 2010 247    98    3385   0.102    2625   0.079   13471       0   13471     847    1691    2541    2794    5598       0      78      12      22      38       2       3    2175     353     703    1054      22      43   11218     482     965    1449    2770    5551    0.00    0.58    0.06    0.09    0.12    0.15    0.16    0.00    0.26    0.02    0.03    0.05    0.07    0.10    0.00    0.32    0.04    0.06    0.07    0.08    0.06       0
 2010 248    99    3384   0.102    2625   0.079   13469       0   13469     847    1690    2540    2794    5598       0      77      12      22      38       2       3    2174     353     703    1054      22      43   11218     482     965    1449    2770    5551    0.00    0.56    0.06    0.09    0.12    0.14    0.15    0.00    0.25    0.02    0.03    0.05    0.06    0.09    0.00    0.31    0.04    0.06    0.07    0.08    0.06       0
 2010 249   100    3383   0.102    2624   0.079   13467       0   13467     847    1690    2539    2794    5597       0      76      12      22      37       2       3    2173     353     702    1053      22      43   11217     482     965    1449    2770    5551    0.00    0.54    0.05    0.09    0.11    0.14    0.15    0.00    0.23    0.02    0.03    0.04    0.06    0.09    0.00    0.31    0.04    0.06    0.07    0.08    0.06       0
 2010 250   101    3382   0.102    2624   0.079   13466       0   13466     846    1689    2539    2794    5597       0      76      12      22      37       2       3    2172     352     702    1053      22      43   11217     482     965    1449    2770    5551    0.00    0.53    0.05    0.09    0.11    0.14    0.14    0.00    0.22    0.01    0.03    0.04    0.06    0.08    0.00    0.31    0.04    0.06    0.07    0.08    0.06       0
 2010 251   102    3381   0.102    2623   0.079   13464       0   13464     846    1689    2538    2794    5597       0      75      11      22      37       2       3    2171     352     702    1052      22      43   11217     482     965    1449    2770    5551    0.00    0.52    0.05    0.09    0.11    0.13    0.14    0.00    0.21    0.01    0.03    0.04    0.05    0.08    0.00    0.31    0.04    0.06    0.07    0.08    0.06       0
 2010 252   103    3380   0.102    2623   0.079   13462       0   13462     846    1688    2537    2794    5597       0      75      11      22      37       2       3    2170     352     701    1052      22      43   11217     482     965    1449    2770    5551    0.00    0.50    0.05    0.09    0.10    0.13    0.13    0.00    0.19    0.01    0.02    0.04    0.05    0.07    0.00    0.31    0.04    0.06    0.07    0.08    0.06       0
 2010 253   104    3379   0.102    2622   0.079   13460       0   13460     846    1688    2536    2794    5597       0      74      11      21      36       2       3    2169     352     701    1051      22      43   11217     482     965    1449    2770    5550    0.00    0.49    0.05    0.08    0.10    0.13    0.13    0.00    0.18    0.01    0.02    0.03    0.05    0.07    0.00    0.31    0.04    0.06    0.07    0.08    0.06       0
 2010 254   105    3378   0.102    2621   0.079   13459       0   13459     845    1687    2535    2794    5597       0      74      11      21      36       2       3    2168     352     701    1051      22      43   11217     482     965    1449    2770    5550    0.00    0.48    0.05    0.08    0.10    0.12    0.12    0.00    0.17    0.01    0.02    0.03    0.04    0.06    0.00    0.31    0.04    0.06    0.07    0.08    0.06       0
 2010 255   106    3376   0.102    2621   0.079   13457       0   13457     845    1687    2535    2794    5597       0      73      11      21      36       2       3    2167     352     700    1050      22      43   11217     482     965    1449    2770    5550    0.00    0.47    0.05    0.08    0.10    0.12    0.12    0.00    0.16    0.01    0.02    0.03    0.04    0.06    0.00    0.31    0.04    0.06    0.07    0.08    0.06       0
 2010 256   107    3375   0.102    2620   0.079   13455       0   13455     845    1686    2534    2794    5597       0      73      11      21      35       2       3    2165     351     700    1050      22      43   11216     482     965    1449    2770    5550    0.00    0.45    0.05    0.08    0.10    0.12    0.12    0.00    0.15    0.01    0.02    0.03    0.04    0.05    0.00    0.31    0.04    0.06    0.07    0.08    0.06       0
 2010 257   108    3374   0.102    2620   0.079   13453       0   13453     845    1686    2533    2794    5597       0      72      11      21      35       2       3    2164     351     699    1049      22      43   11216     482     965    1449    2770    5550    0.00    0.44    0.05    0.08    0.09    0.11    0.11    0.00    0.14    0.01    0.02    0.03    0.04    0.05    0.00    0.30    0.04    0.06    0.07    0.08    0.06       0
 2010 258   109    3373   0.102    2619   0.079   13451       0   13451     844    1685    2532    2793    5596       0      72      11      21      35       2       3    2163     351     699    1048      22      43   11216     482     965    1449    2770    5550    0.00    0.43    0.05    0.08    0.09    0.11    0.11    0.00    0.13    0.01    0.02    0.02    0.03    0.05    0.00    0.30    0.04    0.06    0.07    0.08    0.06       0
 2010 259   110    3372   0.102    2619   0.079   13450       0   13450     844    1685    2531    2793    5596       0      71      11      21      35       2       3    2162     351     699    1048      22      43   11216     482     965    1449    2770    5550    0.00    0.42    0.05    0.08    0.09    0.11    0.10    0.00    0.12    0.01    0.02    0.02    0.03    0.04    0.00    0.30    0.04    0.06    0.07    0.08    0.06       0
 2010 260   111    3371   0.102    2618   0.079   13448       0   13448     844    1684    2530    2793    5596       0      71      11      20      34       2       3    2161     351     698    1047      22      43   11216     482     965    1449    2770    5550    0.00    0.41    0.04    0.07    0.09    0.11    0.10    0.00    0.11    0.01    0.01    0.02    0.03    0.04    0.00    0.30    0.04    0.06    0.07    0.08    0.06       0
 2010 261   112    3370   0.102    2617   0.079   13446       0   13446     844    1683    2530    2793    5596       0      70      11      20      34       2       3    2160     351     698    1047      22      43   11216     482     965    1449    2770    5550    0.00    0.41    0.04    0.07    0.09    0.10    0.10    0.00    0.11    0.01    0.01    0.02    0.03    0.04    0.00    0.30    0.04    0.06    0.07    0.08    0.06       0
 2010 262   113    3369   0.101    2617   0.079   13444       0   13444     843    1683    2529    2793    5596       0      70      11      20      34       2       3    2159     350     698    1046      22      43   11216     482     965    1449    2770    5550    0.00    0.40    0.04    0.07    0.08    0.10    0.10    0.00    0.10    0.01    0.01    0.02    0.03    0.04    0.00    0.30    0.04    0.06    0.07    0.08    0.06       0
 2010 263   114    3368   0.101    2616   0.079   13442       0   13442     843    1682    2528    2793    5596       0      69      10      20      34       2       3    2157     350     697    1046      22      43   11215     482     965    1449    2770    5550    0.00    0.39    0.04    0.07    0.08    0.10    0.09    0.00    0.09    0.01    0.01    0.02    0.02    0.03    0.00    0.30    0.04    0.06    0.07    0.08    0.06       0
 2010 264   115    3367   0.101    2616   0.079   13440       0   13440     843    1682    2527    2793    5596       0      69      10      20      33       2       3    2156     350     697    1045      22      43   11215     482     965    1449    2770    5550    0.00    0.38    0.04    0.07    0.08    0.10    0.09    0.00    0.09    0.01    0.01    0.02    0.02    0.03    0.00    0.29    0.04    0.06    0.07    0.08    0.06       0
 2010 265   116    3366   0.101    2615   0.079   13439       0   13439     842    1681    2526    2793    5596       0      68      10      20      33       2       3    2155     350     696    1044      22      43   11215     482     965    1449    2770    5549    0.00    0.38    0.04    0.07    0.08    0.10    0.09    0.00    0.08    0.01    0.01    0.02    0.02    0.03    0.00    0.29    0.04    0.06    0.07    0.08    0.06       0
 2010 266   117    3365   0.101    2614   0.079   13437       0   13437     842    1681    2525    2793    5596       0      68      10      20      33       2       3    2154     350     696    1044      22      43   11215     482     965    1449    2769    5549    0.00    0.37    0.04    0.07    0.08    0.09    0.09    0.00    0.08    0.01    0.01    0.01    0.02    0.03    0.00    0.29    0.04    0.06    0.07    0.07    0.06       0
 2010 267   118    3364   0.101    2614   0.079   13435       0   13435     842    1680    2524    2793    5595       0      67      10      19      33       2       3    2153     349     696    1043      22      43   11215     482     965    1449    2769    5549    0.00    0.36    0.04    0.07    0.08    0.09    0.08    0.00    0.07    0.01    0.01    0.01    0.02    0.03    0.00    0.29    0.04    0.06    0.06    0.07    0.06       0
 2010 268   119    3362   0.101    2613   0.079   13433       0   13433     842    1680    2524    2793    5595       0      67      10      19      32       2       3    2151     349     695    1043      22      43   11215     482     965    1449    2769    5549    0.00    0.36    0.04    0.07    0.08    0.09    0.08    0.00    0.07    0.00    0.01    0.01    0.02    0.02    0.00    0.29    0.04    0.06    0.06    0.07    0.06       0
 2010 269   120    3361   0.101    2613   0.079   13431       0   13431     841    1679    2523    2793    5595       0      66      10      19      32       2       3    2150     349     695    1042      22      43   11215     482     965    1449    2769    5549    0.00    0.35    0.04    0.06    0.08    0.09    0.08    0.00    0.06    0.00    0.01    0.01    0.02    0.02    0.00    0.29    0.04    0.06    0.06    0.07    0.06       0
 2010 270   121    3360   0.101    2612   0.079   13429       0   13429     841    1679    2522    2793    5595       0      66      10      19      32       2       3    2149     349     694    1041      22      43   11214     482     965    1449    2769    5549    0.00    0.34    0.04    0.06    0.07    0.09    0.08    0.00    0.06    0.00    0.01    0.01    0.01    0.02    0.00    0.29    0.04    0.06    0.06    0.07    0.06       0
 2010 271   122    3359   0.101    2612   0.079   13428       0   13428     841    1678    2521    2793    5595       0      65      10      19      32       2       3    2148     349     694    1041      21      43   11214     482     965    1448    2769    5549    0.00    0.34    0.04    0.06    0.07    0.09    0.08    0.00    0.05    0.00    0.01    0.01    0.01    0.02    0.00    0.29    0.04    0.06    0.06    0.07    0.06       0
 2010 272   123    3358   0.101    2611   0.079   13426       0   13426     841    1678    2520    2793    5595       0      65      10      19      32       2       3    2147     348     694    1040      21      43   11214     482     965    1448    2769    5549    0.00    0.33    0.04    0.06    0.07    0.09    0.08    0.00    0.05    0.00    0.01    0.01    0.01    0.02    0.00    0.28    0.03    0.06    0.06    0.07    0.06       0
 2010 273   124    3357   0.101    2611   0.079   13424       0   13424     840    1677    2520    2792    5595       0      65      10      19      31       2       3    2145     348     693    1040      21      43   11214     482     965    1448    2769    5549    0.00    0.33    0.04    0.06    0.07    0.08    0.07    0.00    0.05    0.00    0.01    0.01    0.01    0.02    0.00    0.28    0.03    0.06    0.06    0.07    0.06       0
 2010 274   125    3356   0.101    2610   0.079   13423       0   13423     840    1677    2519    2792    5595       0      64      10      19      31       2       3    2144     348     693    1039      21      43   11214     482     965    1448    2769    5549    0.00    0.33    0.04    0.06    0.07    0.08    0.07    0.00    0.04    0.00    0.01    0.01    0.01    0.02    0.00    0.28    0.03    0.06    0.06    0.07    0.06       0
 2010 275   126    3356   0.101    2610   0.079   13421       0   13421     840    1676    2518    2792    5594       0      64      10      19      31       2       3    2143     348     693    1039      21      43   11214     482     965    1448    2769    5549    0.00    0.32    0.04    0.06    0.07    0.08    0.07    0.00    0.04    0.00    0.01    0.01    0.01    0.01    0.00    0.28    0.03    0.06    0.06    0.07    0.06       0
 2010 276   127    3355   0.101    2609   0.079   13420       0   13420     840    1676    2518    2792    5594       0      64      10      19      31       2       3    2142     348     692    1038      21      43   11214     482     965    1448    2769    5549    0.00    0.32    0.04    0.06    0.07    0.08    0.07    0.00    0.04    0.00    0.00    0.01    0.01    0.01    0.00    0.28    0.03    0.06    0.06    0.07    0.06       0
 2010 277   128    3354   0.101    2609   0.079   13418       0   13418     839    1675    2517    2792    5594       0      64       9      18      31       2       3    2141     348     692    1038      21      43   11213     482     965    1448    2769    5548    0.00    0.32    0.04    0.06    0.07    0.08    0.07    0.00    0.04    0.00    0.00    0.01    0.01    0.01    0.00    0.28    0.03    0.06    0.06    0.07    0.06       0
 2010 278   129    3353   0.101    2608   0.079   13417       0   13417     839    1675    2516    2792    5594       0      63       9      18      31       2       3    2140     347     691    1037      21      43   11213     482     965    1448    2769    5548    0.00    0.31    0.04    0.06    0.07    0.08    0.07    0.00    0.03    0.00    0.00    0.01    0.01    0.01    0.00    0.28    0.03    0.06    0.06    0.07    0.06       0
 2010 279   130    3352   0.101    2608   0.079   13415       0   13415     839    1674    2516    2792    5594       0      63       9      18      31       2       3    2139     347     691    1037      21      43   11213     482     965    1448    2769    5548    0.00    0.31    0.04    0.06    0.07    0.08    0.07    0.00    0.03    0.00    0.00    0.01    0.01    0.01    0.00    0.28    0.03    0.05    0.06    0.07    0.06       0
 2010 280   131    3351   0.101    2607   0.079   13414       0   13414     839    1674    2515    2792    5594       0      63       9      18      31       2       3    2138     347     691    1036      21      43   11213     482     965    1448    2769    5548    0.00    0.31    0.04    0.06    0.07    0.08    0.07    0.00    0.03    0.00    0.00    0.01    0.01    0.01    0.00    0.28    0.03    0.05    0.06    0.07    0.06       0
 2010 281   132    3350   0.101    2607   0.079   13413       0   13413     839    1674    2515    2792    5594       0      63       9      18      31       2       3    2137     347     690    1036      21      43   11213     482     965    1448    2769    5548    0.00    0.30    0.04    0.06    0.07    0.08    0.07    0.00    0.03    0.00    0.00    0.01    0.01    0.01    0.00    0.27    0.03    0.05    0.06    0.07    0.05       0
 2010 282   133    3349   0.101    2607   0.079   13411       0   13411     838    1673    2514    2792    5594       0      62       9      18      30       2       3    2136     347     690    1035      21      43   11213     482     965    1448    2769    5548    0.00    0.30    0.04    0.06    0.07    0.08    0.06    0.00    0.03    0.00    0.00    0.01    0.01    0.01    0.00    0.27    0.03    0.05    0.06    0.07    0.05       0
 2010 283   134    3348   0.101    2606   0.079   13410       0   13410     838    1673    2514    2792    5594       0      62       9      18      30       2       3    2135     347     690    1035      21      43   11213     482     965    1448    2769    5548    0.00    0.30    0.04    0.06    0.07    0.08    0.06    0.00    0.03    0.00    0.00    0.00    0.01    0.01    0.00    0.27    0.03    0.05    0.06    0.07    0.05       0
 2010 284   135    3348   0.101    2606   0.078   13409       0   13409     838    1672    2513    2792    5594       0      62       9      18      30       2       3    2134     346     689    1034      21      43   11213     482     965    1448    2769    5548    0.00    0.30    0.04    0.06    0.07    0.08    0.06    0.00    0.02    0.00    0.00    0.00    0.01    0.01    0.00    0.27    0.03    0.05    0.06    0.07    0.05       0
 2010 285   136    3347   0.101    2606   0.078   13407       0   13407     838    1672    2513    2792    5593       0      62       9      18      30       2       3    2133     346     689    1034      21      43   11212     482     965    1448    2769    5548    0.00    0.29    0.03    0.06    0.06    0.08    0.06    0.00    0.02    0.00    0.00    0.00    0.01    0.01    0.00    0.27    0.03    0.05    0.06    0.07    0.05       0
 2010 286   137    3346   0.101    2605   0.078   13406       0   13406     837    1671    2512    2792    5593       0      62       9      18      30       2       3    2132     346     688    1033      21      43   11212     482     965    1448    2769    5548    0.00    0.29    0.03    0.06    0.06    0.07    0.06    0.00    0.02    0.00    0.00    0.00    0.01    0.01    0.00    0.27    0.03    0.05    0.06    0.07    0.05       0
 2010 287   138    3345   0.101    2605   0.078   13404       0   13404     837    1671    2511    2792    5593       0      61       9      18      30       2       3    2131     346     688    1033      21      42   11212     482     965    1448    2769    5548    0.00    0.29    0.03    0.06    0.06    0.07    0.06    0.00    0.02    0.00    0.00    0.00    0.01    0.01    0.00    0.27    0.03    0.05    0.06    0.07    0.05       0
 2010 288   139    3344   0.101    2604   0.078   13403       0   13403     837    1670    2511    2792    5593       0      61       9      18      30       2       3    2130     346     688    1032      21      42   11212     482     965    1448    2769    5548    0.00    0.29    0.03    0.05    0.06    0.07    0.06    0.00    0.02    0.00    0.00    0.00    0.00    0.01    0.00    0.27    0.03    0.05    0.06    0.07    0.05       0
 2010 289   140    3343   0.101    2604   0.078   13401       0   13401     837    1670    2510    2792    5593       0      61       9      18      30       2       3    2128     345     687    1032      21      42   11212     482     965    1448    2769    5548    0.00    0.28    0.03    0.05    0.06    0.07    0.06    0.00    0.02    0.00    0.00    0.00    0.00    0.01    0.00    0.27    0.03    0.05    0.06    0.07    0.05       0
 2010 290   141    3342   0.101    2603   0.078   13399       0   13399     836    1669    2509    2792    5593       0      60       9      18      29       2       3    2127     345     687    1031      21      42   11212     482     965    1448    2769    5547    0.00    0.28    0.03    0.05    0.06    0.07    0.06    0.00    0.02    0.00    0.00    0.00    0.00    0.01    0.00    0.27    0.03    0.05    0.06    0.07    0.05       0
 2010 291   142    3341   0.101    2603   0.078   13398       0   13398     836    1669    2508    2791    5593       0      60       9      17      29       2       3    2126     345     687    1031      21      42   11212     482     965    1448    2768    5547    0.00    0.28    0.03    0.05    0.06    0.07    0.06    0.00    0.02    0.00    0.00    0.00    0.00    0.01    0.00    0.26    0.03    0.05    0.06    0.07    0.05       0
 2010 292   143    3340   0.101    2602   0.078   13396       0   13396     836    1668    2507    2791    5593       0      60       9      17      29       2       3    2125     345     686    1030      21      42   11211     482     965    1448    2768    5547    0.00    0.28    0.03    0.05    0.06    0.07    0.06    0.00    0.01    0.00    0.00    0.00    0.00    0.01    0.00    0.26    0.03    0.05    0.06    0.07    0.05       0
 2010 293   144    3339   0.101    2602   0.078   13394       0   13394     836    1668    2507    2791    5593       0      59       9      17      29       2       3    2123     345     686    1029      21      42   11211     482     965    1448    2768    5547    0.00    0.28    0.03    0.05    0.06    0.07    0.06    0.00    0.01    0.00    0.00    0.00    0.00    0.00    0.00    0.26    0.03    0.05    0.06    0.07    0.05       0
 2010 294   145    3338   0.101    2601   0.078   13393       0   13393     836    1668    2506    2791    5592       0      59       9      17      29       2       3    2122     345     685    1029      21      42   11211     482     965    1448    2768    5547    0.00    0.27    0.03    0.05    0.06    0.07    0.06    0.00    0.01    0.00    0.00    0.00    0.00    0.00    0.00    0.26    0.03    0.05    0.06    0.07    0.05       0
 2010 295   146    3337   0.101    2600   0.078   13391       0   13391     835    1667    2505    2791    5592       0      59       9      17      29       2       3    2121     344     685    1028      21      42   11211     482     965    1448    2768    5547    0.00    0.27    0.03    0.05    0.06    0.07    0.06    0.00    0.01    0.00    0.00    0.00    0.00    0.00    0.00    0.26    0.03    0.05    0.06    0.07    0.05       0
 2010 296   147    3337   0.100    2600   0.078   13390       0   13390     835    1667    2504    2791    5592       0      59       9      17      29       2       3    2120     344     685    1028      21      42   11211     482     965    1448    2768    5547    0.00    0.27    0.03    0.05    0.06    0.07    0.06    0.00    0.01    0.00    0.00    0.00    0.00    0.00    0.00    0.26    0.03    0.05    0.06    0.07    0.05       0
