*Surface Mulch daily output file

*DSSAT Cropping System Model Ver. 4.7.2.000 -release      OCT 15, 2021; 17:59:34
                                                                                
*RUN   1        :             CSM335_date_1 MZCER047 ITSA1301    1              
 MODEL          : MZCER047 - Maize                                              
 EXPERIMENT     : ITSA1301 SG CALIBRATION SETUP OF SORGHUM SOWING DATES         
 DATA PATH      :                                                               
 TREATMENT  1   :             CSM335_date_1 MZCER047                            
  
@YEAR DOY   DAS    MCFD   MDEPD    MWAD    MWTD
 2013 265     0   0.000    0.00       0    0.00
 2013 266     1   0.000    0.00       0    0.00
 2013 267     2   0.000    0.00       0    0.00
 2013 268     3   0.000    0.00       0    0.00
 2013 269     4   0.000    0.00       0    0.00
 2013 270     5   0.000    0.00       0    0.00
 2013 271     6   0.000    0.00       0    0.00
 2013 272     7   0.000    0.00       0    0.00
 2013 273     8   0.000    0.00       0    0.00
 2013 274     9   0.000    0.00       0    0.00
 2013 275    10   0.000    0.00       0    0.00
 2013 276    11   0.000    0.00       0    0.00
 2013 277    12   0.000    0.00       0    0.00
 2013 278    13   0.000    0.00       0    0.00
 2013 279    14   0.000    0.00       0    0.00
 2013 280    15   0.000    0.00       0    0.00
 2013 281    16   0.000    0.00       0    0.00
 2013 282    17   0.000    0.00       0    0.00
 2013 283    18   0.000    0.00       0    0.00
 2013 284    19   0.000    0.00       0    0.00
 2013 285    20   0.000    0.00       0    0.00
 2013 286    21   0.000    0.00       0    0.00
 2013 287    22   0.000    0.00       0    0.00
 2013 288    23   0.000    0.00       0    0.00
 2013 289    24   0.000    0.00       0    0.00
 2013 290    25   0.000    0.00       0    0.00
 2013 291    26   0.000    0.00       0    0.00
 2013 292    27   0.000    0.00       0    0.00
 2013 293    28   0.000    0.00       0    0.00
 2013 294    29   0.000    0.00       0    0.00
 2013 295    30   0.000    0.00       0    0.00
 2013 296    31   0.000    0.00       0    0.00
 2013 297    32   0.000    0.00       0    0.00
 2013 298    33   0.000    0.00       0    0.00
 2013 299    34   0.000    0.00       0    0.00
 2013 300    35   0.000    0.00       0    0.00
 2013 301    36   0.000    0.00       0    0.00
 2013 302    37   0.000    0.00       0    0.00
 2013 303    38   0.000    0.00       0    0.00
 2013 304    39   0.000    0.00       0    0.00
 2013 305    40   0.000    0.00       0    0.00
 2013 306    41   0.000    0.00       0    0.00
 2013 307    42   0.000    0.00       0    0.00
 2013 308    43   0.000    0.00       0    0.00
 2013 309    44   0.000    0.00       0    0.00
 2013 310    45   0.000    0.00       0    0.00
 2013 311    46   0.000    0.00       0    0.00
 2013 312    47   0.000    0.00       0    0.00
 2013 313    48   0.000    0.00       0    0.00
 2013 314    49   0.000    0.00       0    0.00
 2013 315    50   0.000    0.00       0    0.00
 2013 316    51   0.000    0.00       0    0.00
 2013 317    52   0.000    0.00       0    0.00
 2013 318    53   0.000    0.00       0    0.00
 2013 319    54   0.000    0.00       0    0.00
 2013 320    55   0.000    0.00       0    0.00
 2013 321    56   0.000    0.00       0    0.00
 2013 322    57   0.000    0.00       0    0.00
 2013 323    58   0.000    0.00       0    0.00
 2013 324    59   0.000    0.00       0    0.00
 2013 325    60   0.000    0.00       0    0.00
 2013 326    61   0.000    0.00       0    0.00
 2013 327    62   0.000    0.00       0    0.00
 2013 328    63   0.000    0.00       0    0.00
 2013 329    64   0.000    0.00       0    0.00
 2013 330    65   0.000    0.00       0    0.00
 2013 331    66   0.000    0.00       0    0.00
 2013 332    67   0.000    0.00       0    0.00
 2013 333    68   0.000    0.00       0    0.00
 2013 334    69   0.000    0.00       0    0.00
 2013 335    70   0.000    0.00       0    0.00
 2013 336    71   0.000    0.00       0    0.00
 2013 337    72   0.000    0.00       0    0.00
 2013 338    73   0.000    0.00       0    0.00
 2013 339    74   0.000    0.00       0    0.00
 2013 340    75   0.000    0.00       0    0.00
 2013 341    76   0.000    0.00       0    0.00
 2013 342    77   0.000    0.00       0    0.00
 2013 343    78   0.000    0.00       0    0.00
 2013 344    79   0.000    0.00       0    0.00
 2013 345    80   0.000    0.00       0    0.00
 2013 346    81   0.000    0.00       0    0.00
 2013 347    82   0.000    0.00       0    0.00
 2013 348    83   0.000    0.00       0    0.00
 2013 349    84   0.000    0.00       0    0.00
 2013 350    85   0.000    0.00       0    0.00
 2013 351    86   0.000    0.00       0    0.00
 2013 352    87   0.000    0.00       0    0.00
 2013 353    88   0.000    0.00       0    0.00
 2013 354    89   0.000    0.00       0    0.00
 2013 355    90   0.000    0.00       0    0.00
 2013 356    91   0.000    0.00       0    0.00
 2013 357    92   0.000    0.00       0    0.00
 2013 358    93   0.000    0.00       0    0.00
 2013 359    94   0.000    0.00       0    0.00
 2013 360    95   0.000    0.00       0    0.00
 2013 361    96   0.000    0.00       0    0.00
 2013 362    97   0.000    0.00       0    0.00
 2013 363    98   0.000    0.00       0    0.00
 2013 364    99   0.000    0.00       0    0.00
 2013 365   100   0.000    0.00       0    0.00
 2014 001   101   0.000    0.00       0    0.00
 2014 002   102   0.000    0.00       0    0.00
 2014 003   103   0.000    0.00       0    0.00
 2014 004   104   0.000    0.00       0    0.00
 2014 005   105   0.000    0.00       0    0.00
 2014 006   106   0.000    0.00       0    0.00
 2014 007   107   0.000    0.00       0    0.00
 2014 008   108   0.000    0.00       0    0.00
 2014 009   109   0.000    0.00       0    0.00
 2014 010   110   0.000    0.00       0    0.00
 2014 011   111   0.000    0.00       0    0.00
 2014 012   112   0.000    0.00       0    0.00
 2014 013   113   0.000    0.00       0    0.00
 2014 014   114   0.000    0.00       0    0.00
 2014 015   115   0.000    0.00       0    0.00
 2014 016   116   0.000    0.00       0    0.00
 2014 017   117   0.000    0.00       0    0.00
 2014 018   118   0.000    0.00       0    0.00
 2014 019   119   0.000    0.00       0    0.00
 2014 020   120   0.000    0.00       0    0.00
 2014 021   121   0.000    0.00       0    0.00
 2014 022   122   0.000    0.00       0    0.00
 2014 023   123   0.000    0.00       0    0.00
 2014 024   124   0.000    0.00       0    0.00
 2014 025   125   0.000    0.00       0    0.00
 2014 026   126   0.000    0.00       0    0.00
 2014 027   127   0.000    0.00       0    0.00
 2014 028   128   0.000    0.00       0    0.00
 2014 029   129   0.000    0.00       0    0.00
 2014 030   130   0.000    0.00       0    0.00
 2014 031   131   0.000    0.00       0    0.00
 2014 032   132   0.000    0.00       0    0.00
 2014 033   133   0.000    0.00       0    0.00
 2014 034   134   0.000    0.00       0    0.00
 2014 035   135   0.000    0.00       0    0.00
 2014 036   136   0.000    0.00       0    0.00
 2014 037   137   0.000    0.00       0    0.00
 2014 038   138   0.000    0.00       0    0.00
 2014 039   139   0.000    0.00       0    0.00
 2014 040   140   0.000    0.00       0    0.00
 2014 041   141   0.000    0.00       0    0.00
 2014 042   142   0.000    0.00       0    0.00
 2014 043   143   0.000    0.00       0    0.00
 2014 044   144   0.000    0.00       0    0.00
 2014 045   145   0.000    0.00       0    0.00
 2014 046   146   0.000    0.00       0    0.00
 2014 047   147   0.000    0.00       0    0.00
