*PLANT N OUTPUT FILE

*DSSAT Cropping System Model Ver. 4.7.2.000 -release      OCT 15, 2021; 17:59:34
                                                                                
*RUN   1        :             CSM335_date_1 MZCER047 ITSA1301    1              
 MODEL          : MZCER047 - Maize                                              
 EXPERIMENT     : ITSA1301 SG CALIBRATION SETUP OF SORGHUM SOWING DATES         
 DATA PATH      :                                                               
 TREATMENT  1   :             CSM335_date_1 MZCER047                            
  
@YEAR DOY   DAS   DAP   CNAD   GNAD   VNAD   GN%D   VN%D   NUPC   LNAD   SNAD   LN%D   SN%D   RN%D   SNN0C   SNN1C
 2013 267     2     0    0.0    0.0    0.0   0.00   0.00    0.0    0.0    0.0    0.0   0.00   0.00    0.00    0.00
 2013 268     3     1    0.0    0.0    0.0   0.00   0.00    0.0    0.0    0.0    0.0   0.00   0.00    0.00    0.00
 2013 269     4     2    0.0    0.0    0.0   0.00   0.00    0.0    0.0    0.0    0.0   0.00   0.00    0.00    0.00
 2013 270     5     3    0.0    0.0    0.0   0.00   0.00    0.0    0.0    0.0    0.0   0.00   0.00    0.00    0.00
 2013 271     6     4    0.0    0.0    0.0   0.00   0.00    0.0    0.0    0.0    0.0   0.00   0.00    0.00    0.00
 2013 272     7     5    0.0    0.0    0.0   0.00   0.00    0.0    0.0    0.0    0.0   0.00   0.00    0.00    0.00
 2013 273     8     6    1.1    0.0    1.1   0.00   4.40    0.0    0.5    0.5    4.4   4.40   2.20    0.00    0.00
 2013 274     9     7    1.1    0.0    1.1   0.00   4.40    0.0    0.5    0.5    4.4   4.40   2.18    0.00    0.00
 2013 275    10     8    1.1    0.0    1.1   0.00   4.40    0.0    0.5    0.5    4.4   4.40   2.10    0.00    0.00
 2013 276    11     9    1.1    0.0    1.1   0.00   4.40    0.0    0.5    0.5    4.4   4.40   2.01    0.00    0.00
 2013 277    12    10    1.1    0.0    1.1   0.00   4.40    0.0    0.5    0.5    4.4   4.40   1.92    0.00    0.00
 2013 278    13    11    1.1    0.0    1.1   0.00   4.40    0.0    0.5    0.5    4.4   4.40   1.74    0.00    0.00
 2013 279    14    12    1.1    0.0    1.1   0.00   4.40    0.0    0.5    0.5    4.4   4.40   1.52    0.00    0.00
 2013 280    15    13    1.1    0.0    1.1   0.00   4.15    0.0    0.6    0.5    4.1   4.15   1.31    0.00    0.00
 2013 281    16    14    1.1    0.0    1.1   0.00   3.33    0.0    0.7    0.4    3.3   3.33   1.16    0.00    0.00
 2013 282    17    15    1.4    0.0    1.4   0.00   3.32    0.3    1.0    0.4    3.3   3.32   1.14    0.00    0.00
 2013 283    18    16    1.8    0.0    1.8   0.00   3.45    0.7    1.3    0.4    3.4   3.45   1.12    0.00    0.00
 2013 284    19    17    2.1    0.0    2.1   0.00   3.46    1.1    1.7    0.4    3.5   3.46   1.19    0.00    0.01
 2013 285    20    18    2.5    0.0    2.5   0.00   3.43    1.6    2.1    0.4    3.4   3.43   1.22    0.00    0.01
 2013 286    21    19    3.0    0.0    3.0   0.00   3.39    2.2    2.6    0.4    3.4   3.39   1.32    0.00    0.01
 2013 287    22    20    3.6    0.0    3.6   0.00   3.41    2.9    3.1    0.4    3.4   3.41   1.23    0.00    0.01
 2013 288    23    21    4.2    0.0    4.2   0.00   3.36    3.7    3.7    0.4    3.4   3.36   1.29    0.00    0.02
 2013 289    24    22    4.9    0.0    4.9   0.00   3.37    4.7    4.5    0.4    3.4   3.37   1.30    0.00    0.02
 2013 290    25    23    5.7    0.0    5.7   0.00   3.36    5.7    5.3    0.4    3.4   3.36   1.26    0.00    0.03
 2013 291    26    24    6.6    0.0    6.6   0.00   3.51    6.9    6.2    0.4    3.5   3.51   1.28    0.00    0.03
 2013 292    27    25    7.3    0.0    7.3   0.00   3.26    7.9    6.9    0.4    3.3   3.26   1.21    0.00    0.04
 2013 293    28    26    8.6    0.0    8.6   0.00   3.33    9.2    8.2    0.4    3.3   3.33   1.16    0.00    0.05
 2013 294    29    27   11.3    0.0   11.3   0.00   3.79   12.2   10.8    0.5    3.8   3.79   1.17    0.00    0.06
 2013 295    30    28   12.5    0.0   12.5   0.00   3.72   13.4   12.1    0.5    3.7   3.72   1.12    0.00    0.07
 2013 296    31    29   13.7    0.0   13.7   0.00   3.61   14.7   13.3    0.4    3.6   3.61   1.12    0.00    0.08
 2013 297    32    30   15.2    0.0   15.2   0.00   3.56   16.5   14.8    0.5    3.6   3.56   1.16    0.00    0.09
 2013 298    33    31   17.0    0.0   17.0   0.00   3.52   19.2   16.5    0.5    3.5   3.52   1.26    0.00    0.11
 2013 299    34    32   19.0    0.0   19.0   0.00   3.47   21.7   18.5    0.5    3.5   3.47   1.22    0.00    0.12
 2013 300    35    33   20.9    0.0   20.9   0.00   3.43   24.2   20.3    0.6    3.4   3.43   1.21    0.00    0.14
 2013 301    36    34   22.4    0.0   22.4   0.00   3.39   26.0   21.7    0.7    3.4   3.39   1.17    0.00    0.17
 2013 302    37    35   23.9    0.0   23.9   0.00   3.37   27.6   23.0    0.8    3.4   3.37   1.14    0.00    0.19
 2013 303    38    36   25.3    0.0   25.3   0.00   3.46   30.2   24.4    1.0    3.5   3.46   1.30    0.00    0.21
 2013 304    39    37   26.2    0.0   26.2   0.00   3.46   31.1   25.1    1.1    3.5   3.46   1.26    0.00    0.24
 2013 305    40    38   26.7    0.0   26.7   0.00   3.40   31.5   25.5    1.2    3.4   3.40   1.18    0.00    0.27
 2013 306    41    39   27.7    0.0   27.7   0.00   3.41   33.0   26.3    1.4    3.4   3.41   1.25    0.00    0.30
 2013 307    42    40   27.7    0.0   27.7   0.00   3.27   33.0   26.1    1.5    3.3   3.27   1.23    0.00    0.30
 2013 308    43    41   28.7    0.0   28.7   0.00   3.22   33.4   26.9    1.9    3.2   3.22   1.08    0.00    0.34
 2013 309    44    42   30.1    0.0   30.1   0.00   3.18   35.1   27.8    2.3    3.2   3.18   1.12    0.00    0.36
 2013 310    45    43   30.1    0.0   30.1   0.00   3.17   35.1   27.8    2.3    3.2   3.17   1.13    0.00    0.36
 2013 311    46    44   32.6    0.0   32.6   0.00   3.06   37.4   29.3    3.3    3.1   3.06   1.08    0.00    0.39
 2013 312    47    45   36.0    0.0   36.0   0.00   3.02   40.8   31.5    4.4    3.0   3.02   1.08    0.00    0.42
 2013 313    48    46   39.5    0.0   39.5   0.00   2.99   44.5   33.8    5.7    3.0   2.99   1.08    0.00    0.45
 2013 314    49    47   43.0    0.0   43.0   0.00   2.96   48.1   35.9    7.1    3.0   2.96   1.08    0.00    0.48
 2013 315    50    48   46.5    0.0   46.5   0.00   2.93   51.6   37.9    8.6    2.9   2.93   1.08    0.00    0.51
 2013 316    51    49   48.4    0.0   48.4   0.00   2.96   53.9   39.1    9.3    3.0   2.96   1.12    0.00    0.54
 2013 317    52    50   49.4    0.0   49.4   0.00   2.95   55.0   39.6    9.8    2.9   2.95   1.13    0.00    0.57
 2013 318    53    51   50.8    0.0   50.8   0.00   2.97   56.5   40.5   10.3    3.0   2.97   1.13    0.00    0.60
 2013 319    54    52   51.8    0.0   51.8   0.00   2.81   57.3   40.2   11.6    2.8   2.81   1.08    0.00    0.64
 2013 320    55    53   54.8    0.0   54.8   0.00   2.84   60.5   41.9   12.9    2.8   2.84   1.09    0.00    0.67
 2013 321    56    54   56.7    0.0   56.7   0.00   2.75   62.4   42.3   14.4    2.8   2.75   1.08    0.00    0.70
 2013 322    57    55   60.0    0.0   60.0   0.00   2.72   65.7   44.1   15.9    2.7   2.72   1.08    0.00    0.73
 2013 323    58    56   63.4    0.0   63.4   0.00   2.69   69.2   45.5   17.9    2.7   2.69   1.08    0.00    0.76
 2013 324    59    57   67.0    0.0   67.0   0.00   2.67   73.0   46.7   20.3    2.7   2.67   1.08    0.00    0.80
 2013 325    60    58   70.6    0.0   70.6   0.00   2.64   76.7   47.8   22.8    2.6   2.64   1.08    0.00    0.83
 2013 326    61    59   74.0    0.0   74.0   0.00   2.61   80.2   48.7   25.3    2.6   2.61   1.08    0.00    0.86
 2013 327    62    60   77.4    0.0   77.4   0.00   2.58   83.6   49.5   27.8    2.6   2.58   1.08    0.00    0.89
 2013 328    63    61   80.7    0.0   80.7   0.00   2.56   87.1   50.3   30.4    2.6   2.56   1.08    0.00    0.93
 2013 329    64    62   83.9    0.0   83.9   0.00   2.53   90.4   51.0   32.9    2.5   2.53   1.08    0.00    0.96
 2013 330    65    63   86.5    0.0   86.5   0.00   2.52   93.5   51.7   34.8    2.5   2.52   1.11    0.00    1.00
 2013 331    66    64   88.9    0.0   88.9   0.00   2.49   95.8   52.0   36.9    2.5   2.49   1.08    0.00    1.03
 2013 332    67    65   91.3    0.0   91.3   0.00   2.47   98.2   52.4   38.9    2.5   2.47   1.08    0.00    1.07
 2013 333    68    66   93.3    0.0   93.3   0.00   2.44  100.4   52.7   40.6    2.4   2.44   1.08    0.00    1.11
 2013 334    69    67   95.3    0.0   95.3   0.00   2.42  102.4   53.0   42.3    2.4   2.42   1.08    0.00    1.14
 2013 335    70    68   97.4    0.0   97.4   0.00   2.40  104.6   53.4   44.1    2.4   2.40   1.08    0.00    1.18
 2013 336    71    69   99.6    0.0   99.6   0.00   2.38  106.9   53.9   45.8    2.4   2.38   1.08    0.00    1.22
 2013 337    72    70  101.8    0.0  101.8   0.00   2.36  109.2   54.4   47.4    2.4   2.36   1.08    0.00    1.25
 2013 338    73    71  103.7    0.0  103.7   0.00   2.34  111.2   54.9   48.8    2.3   2.34   1.08    0.00    1.29
 2013 339    74    72  105.5    0.0  105.5   0.00   2.32  113.1   55.5   50.0    2.3   2.32   1.08    0.00    1.33
 2013 340    75    73  107.0    0.0  107.0   0.00   2.30  114.7   56.0   51.0    2.3   2.30   1.08    0.00    1.37
 2013 341    76    74  107.6    0.0  107.6   0.00   2.30  115.7   56.5   51.1    2.3   2.30   1.12    0.00    1.41
 2013 342    77    75  107.6    0.0  107.6   0.00   2.28  115.7   55.5   52.0    2.3   2.28   1.12    0.00    1.41
 2013 343    78    76  107.6    0.0  107.6   0.00   2.28  115.7   54.7   52.8    2.3   2.28   1.12    0.00    1.41
 2013 344    79    77  107.6    0.0  107.6   0.00   2.28  115.7   53.9   53.6    2.3   2.28   1.13    0.00    1.41
 2013 345    80    78  107.6    0.0  107.6   0.00   2.27  115.7   53.1   54.4    2.3   2.27   1.12    0.00    1.41
 2013 346    81    79  107.6    0.0  107.6   0.00   2.27  115.7   52.3   55.2    2.3   2.27   1.12    0.00    1.41
 2013 347    82    80  107.6    0.0  107.6   0.00   2.28  115.7   51.5   56.0    2.3   2.28   1.11    0.00    1.41
 2013 348    83    81  107.6    0.0  107.6   0.00   2.28  115.7   50.8   56.8    2.3   2.28   1.11    0.00    1.41
 2013 349    84    82  107.6    0.0  107.6   0.00   2.29  115.7   50.0   57.5    2.3   2.29   1.10    0.00    1.41
 2013 350    85    83  107.6    0.0  107.6   0.00   2.30  115.7   49.2   58.3    2.3   2.30   1.10    0.00    1.41
 2013 351    86    84  107.6    0.0  107.6   0.00   2.31  115.7   48.4   59.1    2.3   2.31   1.09    0.00    1.41
 2013 352    87    85  107.6    0.0  107.6   0.00   2.32  115.7   47.6   60.0    2.3   2.32   1.09    0.00    1.41
 2013 353    88    86  107.6    2.2  105.4   1.70   2.28  115.7   46.6   58.7    2.3   2.28   1.07    0.00    1.41
 2013 354    89    87  107.6    4.4  103.2   1.70   2.23  115.7   45.7   57.5    2.2   2.23   1.05    0.00    1.41
 2013 355    90    88  107.6    6.5  101.0   1.70   2.18  115.7   44.7   56.3    2.2   2.18   1.03    0.00    1.41
 2013 356    91    89  107.6    8.7   98.8   1.70   2.14  115.7   43.7   55.1    2.1   2.14   1.01    0.00    1.41
 2013 357    92    90  107.6   10.9   96.6   1.70   2.09  115.7   42.8   53.9    2.1   2.09   0.98    0.00    1.41
 2013 358    93    91  107.6   13.1   94.4   1.70   2.04  115.7   41.8   52.6    2.0   2.04   0.94    0.00    1.41
 2013 359    94    92  107.6   15.0   92.5   1.72   2.00  115.7   40.9   51.6    2.0   2.00   0.95    0.00    1.41
 2013 360    95    93  107.6   17.2   90.3   1.71   1.95  115.7   40.0   50.4    2.0   1.95   0.92    0.00    1.41
 2013 361    96    94  107.6   19.1   88.5   1.72   1.91  115.7   39.1   49.3    1.9   1.91   0.92    0.00    1.41
 2013 362    97    95  107.6   20.9   86.7   1.73   1.89  115.7   38.6   48.0    1.9   1.89   0.92    0.00    1.41
 2013 363    98    96  107.6   22.4   85.2   1.74   1.87  115.7   38.2   47.0    1.9   1.87   0.93    0.00    1.41
 2013 364    99    97  107.6   23.7   83.9   1.75   1.85  115.7   37.9   46.0    1.9   1.85   0.93    0.00    1.41
 2013 365   100    98  107.6   25.4   82.2   1.76   1.83  115.7   37.6   44.6    1.8   1.83   0.94    0.00    1.41
 2014 001   101    99  107.6   26.8   80.7   1.76   1.82  115.7   37.2   43.5    1.8   1.82   0.94    0.00    1.41
 2014 002   102   100  107.6   28.2   79.4   1.77   1.81  115.7   37.0   42.4    1.8   1.81   0.95    0.00    1.41
 2014 003   103   101  107.6   29.4   78.2   1.77   1.80  115.7   36.9   41.3    1.8   1.80   0.95    0.00    1.41
 2014 004   104   102  107.6   30.5   77.0   1.78   1.79  115.7   36.7   40.3    1.8   1.79   0.96    0.00    1.41
 2014 005   105   103  107.6   31.7   75.9   1.78   1.79  115.7   36.6   39.3    1.8   1.79   0.96    0.00    1.41
 2014 006   106   104  107.6   32.8   74.7   1.79   1.78  115.7   36.5   38.2    1.8   1.78   0.97    0.00    1.41
 2014 007   107   105  107.6   34.0   73.5   1.79   1.78  115.7   36.4   37.1    1.8   1.78   0.97    0.00    1.41
 2014 008   108   106  107.6   35.2   72.3   1.79   1.77  115.7   36.3   36.0    1.8   1.77   0.98    0.00    1.41
 2014 009   109   107  107.6   36.5   71.1   1.80   1.76  115.7   36.1   35.0    1.8   1.76   0.98    0.00    1.41
 2014 010   110   108  107.6   37.7   69.9   1.80   1.75  115.7   35.8   34.0    1.8   1.75   0.99    0.00    1.41
 2014 011   111   109  107.6   38.9   68.7   1.80   1.74  115.7   35.6   33.1    1.7   1.74   0.99    0.00    1.41
 2014 012   112   110  107.6   39.0   68.5   1.80   1.74  115.7   35.6   32.9    1.7   1.74   1.00    0.00    1.41
 2014 013   113   111  107.6   39.2   68.4   1.80   1.74  115.7   35.6   32.8    1.7   1.74   1.00    0.00    1.41
 2014 014   114   112  107.6   39.4   68.2   1.80   1.73  115.7   35.5   32.7    1.7   1.73   1.01    0.00    1.41
 2014 015   115   113  107.6   39.5   68.0   1.80   1.73  115.7   35.4   32.6    1.7   1.73   1.01    0.00    1.41
 2014 016   116   114  107.6   41.7   65.9   1.80   1.67  115.7   34.2   31.6    1.7   1.67   1.01    0.00    1.41
 2014 017   117   115  107.6   43.9   63.7   1.79   1.61  115.7   33.0   30.6    1.6   1.61   1.02    0.00    1.41
 2014 018   118   116  107.6   46.1   61.5   1.79   1.56  115.7   31.8   29.6    1.6   1.56   1.02    0.00    1.41
 2014 019   119   117  107.6   46.1   61.5   1.79   1.56  115.7   31.8   29.6    1.6   1.56   1.02    0.00    1.41
 2014 020   120   118  107.6   46.1   61.5   1.79   1.56  115.7   31.8   29.6    1.6   1.56   1.02    0.00    1.41
 2014 021   121   119  107.6   46.1   61.5   1.79   1.56  115.7   31.8   29.6    1.6   1.56   1.02    0.00    1.41
 2014 022   122   120  107.6   46.1   61.5   1.79   1.56  115.7   31.8   29.6    1.6   1.56   1.02    0.00    1.41
 2014 023   123   121  107.6   46.1   61.5   1.79   1.56  115.7   31.8   29.6    1.6   1.56   1.02    0.00    1.41
 2014 024   124   122  107.6   46.1   61.5   1.79   1.56  115.7   31.8   29.6    1.6   1.56   1.02    0.00    1.41
 2014 025   125   123  107.6   46.1   61.5   1.79   1.56  115.7   31.8   29.6    1.6   1.56   1.02    0.00    1.41
 2014 026   126   124  107.6   46.1   61.5   1.79   1.56  115.7   31.8   29.6    1.6   1.56   1.02    0.00    1.41
 2014 027   127   125  107.6   46.1   61.5   1.79   1.56  115.7   31.8   29.6    1.6   1.56   1.02    0.00    1.41
 2014 028   128   126  107.6   46.1   61.5   1.79   1.56  115.7   31.8   29.6    1.6   1.56   1.02    0.00    1.41
 2014 029   129   127  107.6   46.1   61.5   1.79   1.56  115.7   31.8   29.6    1.6   1.56   1.02    0.00    1.41
 2014 030   130   128  107.6   46.1   61.5   1.79   1.56  115.7   31.8   29.6    1.6   1.56   1.02    0.00    1.41
 2014 031   131   129  107.6   46.1   61.5   1.79   1.56  115.7   31.8   29.6    1.6   1.56   1.02    0.00    1.41
 2014 032   132   130  107.6   46.1   61.5   1.79   1.56  115.7   31.8   29.6    1.6   1.56   1.02    0.00    1.41
 2014 033   133   131  107.6   46.1   61.5   1.79   1.56  115.7   31.8   29.6    1.6   1.56   1.02    0.00    1.41
 2014 034   134   132  107.6   46.1   61.5   1.79   1.56  115.7   31.8   29.6    1.6   1.56   1.02    0.00    1.41
 2014 035   135   133  107.6   46.1   61.5   1.79   1.56  115.7   31.8   29.6    1.6   1.56   1.02    0.00    1.41
 2014 036   136   134  107.6   46.1   61.5   1.79   1.56  115.7   31.8   29.6    1.6   1.56   1.02    0.00    1.41
 2014 037   137   135  107.6   46.1   61.5   1.79   1.56  115.7   31.8   29.6    1.6   1.56   1.02    0.00    1.41
 2014 038   138   136  107.6   46.1   61.5   1.79   1.56  115.7   31.8   29.6    1.6   1.56   1.02    0.00    1.41
 2014 039   139   137  107.6   46.1   61.5   1.79   1.56  115.7   31.8   29.6    1.6   1.56   1.02    0.00    1.41
 2014 040   140   138  107.6   46.1   61.5   1.79   1.56  115.7   31.8   29.6    1.6   1.56   1.02    0.00    1.41
 2014 041   141   139  107.6   46.1   61.5   1.79   1.56  115.7   31.8   29.6    1.6   1.56   1.02    0.00    1.41
 2014 042   142   140  107.6   46.1   61.5   1.79   1.56  115.7   31.8   29.6    1.6   1.56   1.02    0.00    1.41
 2014 043   143   141  107.6   46.1   61.5   1.79   1.56  115.7   31.8   29.6    1.6   1.56   1.02    0.00    1.41
 2014 044   144   142  107.6   46.1   61.5   1.79   1.56  115.7   31.8   29.6    1.6   1.56   1.02    0.00    1.41
 2014 045   145   143  107.6   46.1   61.5   1.79   1.56  115.7   31.8   29.6    1.6   1.56   1.02    0.00    1.41
 2014 046   146   144  107.6   46.1   61.5   1.79   1.56  115.7   31.8   29.6    1.6   1.56   1.02    0.00    1.41
 2014 047   147   145  107.6   46.1   61.5   1.79   1.56  115.7   31.8   29.6    1.6   1.56   1.02    0.00    1.41
