*GROWTH ASPECTS OUTPUT FILE

*DSSAT Cropping System Model Ver. 4.7.2.000 -release      OCT 15, 2021; 17:59:34
                                                                                
*RUN   1        :             CSM335_date_1 MZCER047 ITSA1301    1              
 MODEL          : MZCER047 - Maize                                              
 EXPERIMENT     : ITSA1301 SG CALIBRATION SETUP OF SORGHUM SOWING DATES         
 DATA PATH      :                                                               
 TREATMENT  1   :             CSM335_date_1 MZCER047                            
  
!                                                                                                                                                                                                                                      Root Dens. (cm/cm3) by soil depth (cm):
!                                                                                                                                                                                                                                      0-5    5-15   15-30   30-53   53-77  77-100
@YEAR DOY   DAS   DAP   L#SD   GSTD   LAID   LWAD   SWAD   GWAD   RWAD   VWAD   CWAD   G#AD   GWGD   HIAD   PWAD   P#AD   WSPD   WSGD   NSTD   EWSD  PST1A  PST2A   KSTD   LN%D   SH%D   HIPD   PWDD   PWTD     SLAD   CHTD   CWID   RDPD    RL1D    RL2D    RL3D    RL4D    RL5D    RL6D   CDAD   LDAD   SDAD   SNW0C   SNW1C  DTTD
 2013 267     2     0    0.0      0   0.00      0      0      0      0      0      0      0    0.0  0.000      0      0  0.000  0.000  0.000  0.000  0.000  0.000  0.000   0.00   0.00   0.00      0      0      0.0   0.00   0.00   0.03    0.00    0.00    0.00    0.00    0.00    0.00      0      0      0       0       0 13.98
 2013 268     3     1    0.0      0   0.00      0      0      0      0      0      0      0    0.0  0.000      0      0  0.000  0.000  0.000  0.000  0.000  0.000  0.000   0.00   0.00   0.00      0      0      0.0   0.00   0.00   0.05    0.00    0.00    0.00    0.00    0.00    0.00      0      0      0       0       0 16.15
 2013 269     4     2    0.0      0   0.00      0      0      0      0      0      0      0    0.0  0.000      0      0  0.000  0.000  0.000  0.000  0.000  0.000  0.000   0.00   0.00   0.00      0      0      0.0   0.00   0.00   0.08    0.00    0.00    0.00    0.00    0.00    0.00      0      0      0       0       0 16.13
 2013 270     5     3    0.0      0   0.00      0      0      0      0      0      0      0    0.0  0.000      0      0  0.000  0.000  0.000  0.000  0.000  0.000  0.000   0.00   0.00   0.00      0      0      0.0   0.00   0.00   0.10    0.00    0.00    0.00    0.00    0.00    0.00      0      0      0       0       0 17.47
 2013 271     6     4    0.0      0   0.00      0      0      0      0      0      0      0    0.0  0.000      0      0  0.000  0.000  0.000  0.000  0.000  0.000  0.000   0.00   0.00   0.00      0      0      0.0   0.00   0.00   0.13    0.00    0.00    0.00    0.00    0.00    0.00      0      0      0       0       0 17.18
 2013 272     7     5    0.0      0   0.00      0      0      0      0      0      0      0    0.0  0.000      0      0  0.000  0.000  0.000  0.000  0.000  0.000  0.000   0.00   0.00   0.00      0      0      0.0   0.00   0.00   0.15    0.00    0.00    0.00    0.00    0.00    0.00      0      0      0       0       0 12.14
 2013 273     8     6    1.0      1   0.00     12     12      0     12     25     25      0    0.0  0.000      0      0  0.000  0.000  0.012  0.000  0.000  0.000  0.000   4.40   0.00   0.00      0      0     20.6   0.00   0.00   0.16    0.25    0.12    0.00    0.00    0.00    0.00      0      0      0       0       0 13.79
 2013 274     9     7    2.0      1   0.00     12     12      0     13     25     25      0    0.0  0.000      0      0  0.000  0.000  0.013  0.000  0.000  0.000  0.000   4.40   0.00   0.00      0      0     40.0   0.00   0.00   0.18    0.25    0.12    0.00    0.00    0.00    0.00      0      0      0       0       0 14.76
 2013 275    10     8    2.0      1   0.01     12     12      0     13     25     25      0    0.0  0.000      0      0  0.000  0.000  0.008  0.000  0.000  0.000  0.000   4.40   0.00   0.00      0      0     62.3   0.00   0.00   0.19    0.26    0.13    0.00    0.00    0.00    0.00      0      0      0       0       0 14.94
 2013 276    11     9    3.0      1   0.01     12     12      0     14     25     25      0    0.0  0.000      0      0  0.000  0.000  0.004  0.000  0.000  0.000  0.000   4.40   0.00   0.00      0      0     86.7   0.01   0.00   0.21    0.26    0.13    0.00    0.00    0.00    0.00      0      0      0       0       0 14.86
 2013 277    12    10    3.0      1   0.01     12     12      0     14     25     25      0    0.0  0.000      0      0  0.000  0.000  0.000  0.000  0.000  0.000  0.000   4.40   0.00   0.00      0      0    111.3   0.01   0.00   0.22    0.27    0.14    0.00    0.00    0.00    0.00      0      0      0       0       0 13.87
 2013 278    13    11    3.0      1   0.02     12     12      0     16     25     25      0    0.0  0.000      0      0  0.000  0.000  0.000  0.000  0.000  0.000  0.000   4.40   0.00   0.00      0      0    141.2   0.01   0.00   0.24    0.29    0.15    0.01    0.00    0.00    0.00      0      0      0       0       0 15.64
 2013 279    14    12    4.0      1   0.03     12     12      0     18     25     25      0    0.0  0.000      0      0  0.000  0.000  0.000  0.000  0.000  0.000  0.000   4.40   0.00   0.00      0      0    252.1   0.02   0.00   0.25    0.32    0.16    0.02    0.00    0.00    0.00      0      0      0       0       0 16.91
 2013 280    15    13    4.0      1   0.05     14     12      0     21     26     26      0    0.0  0.000      0      0  0.000  0.000  0.000  0.000  0.000  0.000  0.000   4.15   0.00   0.00      0      0    334.8   0.03   0.00   0.27    0.35    0.18    0.03    0.00    0.00    0.00      0      0      0       0       0 16.89
 2013 281    16    14    5.0      1   0.07     21     12      0     23     34     34      0    0.0  0.000      0      0  0.000  0.000  0.000  0.000  0.000  0.000  0.000   3.33   0.00   0.00      0      0    307.5   0.04   0.00   0.29    0.37    0.19    0.04    0.00    0.00    0.00      0      0      0       0       0 17.53
 2013 282    17    15    5.0      1   0.09     30     12      0     24     42     42      0    0.0  0.000      0      0  0.000  0.000  0.000  0.000  0.000  0.000  0.000   3.32   0.00   0.00      0      0    286.1   0.05   0.00   0.31    0.38    0.20    0.05    0.00    0.00    0.00      0      0      0       0       0 17.81
 2013 283    18    16    5.0      1   0.11     39     12      0     26     51     51      0    0.0  0.000      0      0  0.000  0.000  0.000  0.000  0.000  0.000  0.000   3.45   0.00   0.00      0      0    271.3   0.06   0.00   0.32    0.39    0.21    0.06    0.00    0.00    0.00      0      0      0       0       0 15.32
 2013 284    19    17    6.0      1   0.13     49     12      0     29     61     61      0    0.0  0.000      0      0  0.000  0.000  0.000  0.000  0.000  0.000  0.000   3.46   0.00   0.00      0      0    258.7   0.07   0.00   0.34    0.42    0.23    0.08    0.00    0.00    0.00      0      0      0       0       0 15.20
 2013 285    20    18    6.0      1   0.15     61     12      0     34     74     74      0    0.0  0.000      0      0  0.000  0.000  0.000  0.000  0.000  0.000  0.000   3.43   0.00   0.00      0      0    247.3   0.08   0.00   0.35    0.46    0.27    0.11    0.00    0.00    0.00      0      0      0       0       1 15.88
 2013 286    21    19    6.0      1   0.18     76     12      0     45     88     88      0    0.0  0.000      0      0  0.000  0.000  0.000  0.000  0.000  0.000  0.000   3.39   0.00   0.00      0      0    236.5   0.10   0.00   0.39    0.55    0.34    0.17    0.00    0.00    0.00      0      0      0       0       1 16.73
 2013 287    22    20    7.0      1   0.21     92     12      0     53    104    104      0    0.0  0.000      0      0  0.000  0.000  0.000  0.000  0.000  0.000  0.000   3.41   0.00   0.00      0      0    227.3   0.11   0.00   0.42    0.62    0.40    0.21    0.00    0.00    0.00      0      0      0       0       1 16.00
 2013 288    23    21    7.0      1   0.24    111     12      0     68    124    124      0    0.0  0.000      0      0  0.000  0.000  0.000  0.000  0.000  0.000  0.000   3.36   0.00   0.00      0      0    218.3   0.13   0.00   0.45    0.73    0.50    0.30    0.00    0.00    0.00      0      0      0       0       1 17.01
 2013 289    24    22    7.0      1   0.28    133     12      0     87    145    145      0    0.0  0.000      0      0  0.000  0.000  0.000  0.000  0.000  0.000  0.000   3.37   0.00   0.00      0      0    210.4   0.15   0.00   0.48    0.89    0.62    0.40    0.00    0.00    0.00      0      0      0       0       2 16.55
 2013 290    25    23    8.0      1   0.32    157     12      0    106    170    170      0    0.0  0.000      0      0  0.000  0.000  0.000  0.000  0.000  0.000  0.000   3.36   0.00   0.00      0      0    203.1   0.17   0.00   0.52    1.05    0.74    0.51    0.01    0.00    0.00      0      0      0       0       2 16.62
 2013 291    26    24    8.0      2   0.37    176     12      0    132    188    188      0    0.0  0.000      0      0  0.000  0.000  0.000  0.000  0.000  0.000  0.000   3.51   0.00   0.00      0      0    212.0   0.20   0.00   0.55    1.26    0.91    0.66    0.01    0.00    0.00      0      0      0       0       3 17.34
 2013 292    27    25    8.0      2   0.43    212     12      0    152    225    225      0    0.0  0.000      0      0  0.000  0.000  0.001  0.000  0.000  0.000  0.000   3.26   0.00   0.00      0      0    203.9   0.23   0.00   0.59    1.43    1.05    0.77    0.01    0.00    0.00      0      0      0       0       3 18.11
 2013 293    28    26    9.0      2   0.48    245     12      0    168    258    258      0    0.0  0.000      0      0  0.000  0.000  0.000  0.000  0.000  0.000  0.000   3.33   0.00   0.00      0      0    197.8   0.26   0.00   0.62    1.56    1.15    0.86    0.02    0.00    0.00      0      0      0       0       4 14.74
 2013 294    29    27    9.0      2   0.55    286     12      0    186    299    299      0    0.0  0.000      0      0  0.000  0.000  0.000  0.000  0.000  0.000  0.000   3.79   0.00   0.00      0      0    191.5   0.30   0.00   0.65    1.71    1.27    0.96    0.02    0.00    0.00      0      0      0       0       5 16.62
 2013 295    30    28    9.0      2   0.61    325     12      0    195    337    337      0    0.0  0.000      0      0  0.000  0.000  0.000  0.000  0.000  0.000  0.000   3.72   0.00   0.00      0      0    186.4   0.33   0.00   0.68    1.78    1.32    1.01    0.02    0.00    0.00      0      0      0       0       6 14.31
 2013 296    31    29   10.0      3   0.67    368     12      0    205    380    380      0    0.0  0.000      0      0  0.000  0.000  0.000  0.000  0.000  0.000  0.000   3.61   0.00   0.00      0      0    180.8   0.36   0.00   0.71    1.86    1.39    1.07    0.02    0.00    0.00      0      0      0       0       7 14.66
 2013 297    32    30   10.0      3   0.73    415     13      0    225    428    428      0    0.0  0.000      0      0  0.000  0.000  0.000  0.000  0.000  0.000  0.000   3.56   0.00   0.00      0      0    177.0   0.40   0.00   0.74    2.02    1.52    1.18    0.03    0.00    0.00      0      0      0       0       8 14.71
 2013 298    33    31   10.0      3   0.81    469     14      0    276    482    482      0    0.0  0.000      0      0  0.000  0.000  0.000  0.000  0.000  0.000  0.000   3.52   0.00   0.00      0      0    173.3   0.44   0.00   0.77    2.43    1.86    1.46    0.04    0.00    0.00      0      0      0       0       9 15.50
 2013 299    34    32   11.0      3   0.90    531     15      0    321    547    547      0    0.0  0.000      0      0  0.000  0.000  0.000  0.000  0.000  0.000  0.000   3.47   0.00   0.00      0      0    169.4   0.49   0.00   0.80    2.82    2.15    1.70    0.05    0.01    0.00      0      0      0       0      10 16.63
 2013 300    35    33   11.0      3   0.98    590     18      0    373    608    608      0    0.0  0.000      0      0  0.000  0.085  0.000  0.000  0.000  0.000  0.000   3.43   0.00   0.00      0      0    166.3   0.53   0.00   0.83    3.13    2.53    2.00    0.06    0.01    0.00      0      0      0       0      12 15.60
 2013 301    36    34   11.0      3   1.05    640     21      0    411    661    661      0    0.0  0.000      0      0  0.000  0.300  0.000  0.000  0.000  0.000  0.000   3.39   0.00   0.00      0      0    163.8   0.56   0.00   0.87    3.22    2.83    2.24    0.06    0.02    0.00      0      0      0       0      14 15.95
 2013 302    37    35   11.0      3   1.10    683     25      0    437    708    708      0    0.0  0.000      0      0  0.049  0.366  0.000  0.000  0.000  0.000  0.000   3.37   0.00   0.00      0      0    161.5   0.59   0.00   0.90    3.20    3.05    2.41    0.07    0.02    0.00      0      0      0       0      16 14.50
 2013 303    38    36   12.0      3   1.09    704     28      0    462    731    731      0    0.0  0.000      0      0  0.629  0.753  0.000  0.000  0.000  0.000  0.000   3.46   0.00   0.00      0      0    155.6   0.59   0.00   0.92    3.18    3.24    2.61    0.07    0.03    0.01      0      0      0       0      18 14.60
 2013 304    39    37   12.0      3   1.09    725     31      0    481    756    756      0    0.0  0.000      0      0  0.621  0.748  0.000  0.000  0.000  0.000  0.000   3.46   0.00   0.00      0      0    150.0   0.59   0.00   0.95    3.28    3.34    2.74    0.07    0.03    0.01      0      0      0       0      20 15.25
 2013 305    40    38   12.0      3   1.09    752     35      0    495    787    787      0    0.0  0.000      0      0  0.532  0.688  0.000  0.000  0.000  0.000  0.000   3.40   0.00   0.00      0      0    145.4   0.59   0.00   0.98    3.38    3.40    2.84    0.07    0.03    0.01      0      0      0       0      23 14.75
 2013 306    41    39   13.0      3   1.08    772     40      0    510    811    811      0    0.0  0.000      0      0  0.677  0.785  0.000  0.000  0.000  0.000  0.000   3.41   0.00   0.00      0      0    140.0   0.59   0.00   1.00    3.46    3.46    2.96    0.08    0.03    0.01      0      0      0       0      25 15.90
 2013 307    42    40   13.0      3   1.09    800     47      0    517    847    847      0    0.0  0.000      0      0  0.536  0.691  0.000  0.000  0.000  0.000  0.000   3.27   0.00   0.00      0      0    135.9   0.59   0.00   1.00    3.56    3.47    3.00    0.08    0.03    0.02      0      0      0       0      25 15.60
 2013 308    43    41   13.0      3   1.11    835     58      0    520    893    893      0    0.0  0.000      0      0  0.322  0.548  0.000  0.000  0.000  0.000  0.000   3.22   0.00   0.00      0      0    133.4   0.60   0.00   1.00    3.64    3.45    3.02    0.08    0.03    0.02      0      0      0       0      28 13.40
 2013 309    44    42   14.0      3   1.15    876     71      0    535    947    947      0    0.0  0.000      0      0  0.266  0.511  0.000  0.000  0.000  0.000  0.000   3.18   0.00   0.00      0      0    131.3   0.62   0.00   1.00    4.00    3.44    3.07    0.08    0.04    0.02      0      0      0       0      30 14.00
 2013 310    45    43   14.0      3   1.15    877     72      0    532    948    948      0    0.0  0.000      0      0  0.000  0.000  0.000  0.000  0.000  0.000  0.000   3.17   0.00   0.00      0      0    131.3   0.62   0.00   1.00    3.98    3.42    3.06    0.08    0.04    0.02      0      0      0       0      30  9.20
 2013 311    46    44   14.0      3   1.25    960    107      0    536   1067   1067      0    0.0  0.000      0      0  0.000  0.000  0.000  0.000  0.000  0.000  0.000   3.06   0.00   0.00      0      0    130.7   0.68   0.00   1.00    4.00    3.46    3.07    0.08    0.04    0.02      0      0      0       0      33 14.49
 2013 312    47    45   14.0      3   1.36   1043    146      0    540   1189   1189      0    0.0  0.000      0      0  0.000  0.000  0.000  0.000  0.000  0.000  0.000   3.02   0.00   0.00      0      0    130.0   0.73   0.00   1.00    4.00    3.51    3.08    0.08    0.04    0.02      0      0      0       0      36 14.49
 2013 313    48    46   15.0      3   1.46   1128    192      0    545   1320   1320      0    0.0  0.000      0      0  0.000  0.000  0.000  0.000  0.000  0.000  0.000   2.99   0.00   0.00      0      0    129.3   0.79   0.00   1.00    4.00    3.56    3.09    0.08    0.04    0.02      0      0      0       0      38 14.47
 2013 314    49    47   15.0      3   1.56   1212    241      0    550   1453   1453      0    0.0  0.000      0      0  0.000  0.000  0.000  0.000  0.000  0.000  0.000   2.96   0.00   0.00      0      0    128.6   0.84   0.00   1.00    4.00    3.59    3.10    0.08    0.04    0.02      0      0      0       0      41 14.45
 2013 315    50    48   15.0      3   1.65   1293    294      0    554   1587   1587      0    0.0  0.000      0      0  0.000  0.065  0.000  0.000  0.000  0.000  0.000   2.93   0.00   0.00      0      0    127.9   0.89   0.00   1.00    4.00    3.64    3.11    0.08    0.04    0.02      0      0      0       0      44 14.33
 2013 316    51    49   16.0      3   1.64   1322    315      0    565   1636   1636      0    0.0  0.000      0      0  0.529  0.687  0.000  0.000  0.000  0.000  0.000   2.96   0.00   0.00      0      0    124.2   0.89   0.00   1.00    4.00    3.77    3.14    0.08    0.04    0.02      0      0      0       0      47 14.19
 2013 317    52    50   16.0      3   1.61   1344    332      0    571   1676   1676      0    0.0  0.000      0      0  0.641  0.761  0.000  0.000  0.000  0.000  0.000   2.95   0.00   0.00      0      0    120.1   0.89   0.00   1.00    3.98    3.86    3.16    0.08    0.04    0.03      0      0      0       0      49 14.23
 2013 318    53    51   16.0      3   1.58   1362    348      0    574   1710   1710      0    0.0  0.000      0      0  0.701  0.801  0.000  0.000  0.000  0.000  0.000   2.97   0.00   0.00      0      0    115.8   0.89   0.00   1.00    4.00    3.87    3.15    0.08    0.04    0.03      0      0      0       0      52 14.22
 2013 319    54    52   16.0      3   1.66   1432    413      0    578   1845   1845      0    0.0  0.000      0      0  0.000  0.000  0.000  0.000  0.000  0.000  0.000   2.81   0.00   0.00      0      0    115.8   0.89   0.00   1.00    4.00    3.89    3.14    0.08    0.04    0.03      0      0      0       0      55 14.29
 2013 320    55    53   17.0      3   1.67   1472    454      0    583   1927   1927      0    0.0  0.000      0      0  0.351  0.568  0.000  0.000  0.000  0.000  0.000   2.84   0.00   0.00      0      0    113.7   0.90   0.00   1.00    4.00    3.94    3.15    0.08    0.04    0.03      0      0      0       0      58 14.24
 2013 321    56    54   17.0      3   1.75   1537    525      0    588   2062   2062      0    0.0  0.000      0      0  0.000  0.000  0.000  0.000  0.000  0.000  0.000   2.75   0.00   0.00      0      0    113.7   0.94   0.00   1.00    4.00    3.97    3.18    0.08    0.04    0.03      0      0      0       0      61 14.17
 2013 322    57    55   17.0      3   1.84   1620    584      0    593   2203   2203      0    0.0  0.000      0      0  0.000  0.000  0.000  0.000  0.000  0.000  0.000   2.72   0.00   0.00      0      0    113.6   0.99   0.00   1.00    4.00    4.00    3.20    0.08    0.04    0.03      0      0      0       0      64 14.20
 2013 323    58    56   18.0      3   1.91   1688    665      0    598   2352   2352      0    0.0  0.000      0      0  0.000  0.000  0.000  0.000  0.000  0.000  0.000   2.69   0.00   0.00      0      0    113.5   1.03   0.00   1.00    4.00    4.00    3.22    0.08    0.04    0.03      0      0      0       0      67 14.29
 2013 324    59    57   18.0      3   1.99   1753    761      0    604   2513   2515      0    0.0  0.000      1      0  0.000  0.000  0.000  0.000  0.000  0.000  0.000   2.67   0.00   0.00      0      1    113.3   1.07   0.00   1.00    4.00    4.00    3.25    0.08    0.04    0.03      0      0      0       0      70 14.56
 2013 325    60    58   18.0      3   2.05   1812    864      0    611   2677   2680      0    0.0  0.000      3      0  0.000  0.000  0.000  0.000  0.000  0.000  0.000   2.64   0.00   0.00      0      3    113.2   1.11   0.00   1.00    4.00    4.00    3.28    0.08    0.04    0.03      0      0      0       0      73 14.70
 2013 326    61    59   18.0      3   2.11   1867    969      0    617   2836   2842      0    0.0  0.000      6      0  0.000  0.038  0.000  0.000  0.000  0.000  0.000   2.61   0.00   0.00      0      6    113.0   1.14   0.00   1.00    4.00    4.00    3.30    0.08    0.04    0.03      0      0      0       0      76 14.61
 2013 327    62    60   19.0      3   2.17   1917   1077      0    622   2994   3004      0    0.0  0.000     10      0  0.000  0.000  0.000  0.000  0.000  0.000  0.000   2.58   0.00   0.00      0     10    112.9   1.17   0.00   1.00    4.00    4.00    3.33    0.08    0.04    0.03      0      0      0       0      79 14.48
 2013 328    63    61   19.0      3   2.22   1967   1189      0    629   3157   3172      0    0.0  0.000     15      0  0.000  0.000  0.000  0.000  0.000  0.000  0.000   2.56   0.00   0.00      0     15    112.8   1.20   0.00   1.00    4.00    4.00    3.35    0.08    0.04    0.03      0      0      0       0      82 14.54
 2013 329    64    62   19.0      3   2.27   2014   1300      0    635   3314   3336      0    0.0  0.000     22      0  0.000  0.000  0.000  0.000  0.000  0.000  0.000   2.53   0.00   0.01      0     22    112.6   1.22   0.00   1.00    4.00    4.00    3.38    0.08    0.04    0.03      0      0      0       0      85 14.29
 2013 330    65    63   20.0      3   1.73   2050   1383      0    662   3433   3467      0    0.0  0.000     34      0  0.000  0.000  0.000  0.000  0.000  0.000  0.000   2.52   0.00   0.01      0     34     84.4   1.22   0.00   1.00    4.00    4.00    3.53    0.09    0.05    0.03      0      0      0       0      88  8.02
 2013 331    66    64   20.0      3   1.77   2089   1481      0    667   3570   3613      0    0.0  0.000     42      0  0.000  0.000  0.000  0.000  0.000  0.000  0.000   2.49   0.00   0.01      0     42     84.8   1.22   0.00   1.00    4.00    4.00    3.56    0.09    0.05    0.03      0      0      0       0      92 14.36
 2013 332    67    65   20.0      3   1.81   2126   1577      0    672   3702   3755      0    0.0  0.000     53      0  0.000  0.000  0.000  0.000  0.000  0.000  0.000   2.47   0.00   0.01      0     53     85.1   1.22   0.00   1.00    4.00    4.00    3.59    0.09    0.05    0.03      0      0      0       0      95 14.26
 2013 333    68    66   20.0      3   1.84   2159   1665      0    676   3824   3888      0    0.0  0.000     65      0  0.000  0.000  0.000  0.000  0.000  0.000  0.000   2.44   0.00   0.02      0     65     85.5   1.22   0.00   1.00    4.00    4.00    3.62    0.09    0.05    0.03      0      0      0       0      98 14.01
 2013 334    69    67   21.0      3   1.88   2191   1750      0    680   3941   4021      0    0.0  0.000     80      0  0.000  0.000  0.000  0.000  0.000  0.000  0.000   2.42   0.00   0.02      0     80     85.7   1.22   0.00   1.00    4.00    4.00    3.64    0.09    0.05    0.03      0      0      0       0     102 13.82
 2013 335    70    68   21.0      3   1.92   2226   1838      0    685   4064   4166      0    0.0  0.000    102      0  0.000  0.000  0.000  0.000  0.000  0.000  0.000   2.40   0.00   0.02      0    102     86.0   1.22   0.00   1.00    4.00    4.00    3.67    0.09    0.05    0.03      0      0      0       0     105 13.91
 2013 336    71    69   21.0      3   1.96   2265   1926      0    690   4191   4326      0    0.0  0.000    135      0  0.000  0.000  0.000  0.000  0.000  0.000  0.000   2.38   0.00   0.03      0    135     86.3   1.22   0.00   1.00    4.00    4.00    3.70    0.09    0.05    0.03      0      0      0       0     109 14.27
 2013 337    72    70   21.0      3   2.00   2306   2011      0    696   4317   4495      0    0.0  0.000    178      0  0.000  0.000  0.000  0.000  0.000  0.000  0.000   2.36   0.00   0.04      0    178     86.7   1.22   0.00   1.00    4.00    4.00    3.74    0.09    0.05    0.03      0      0      0       0     112 14.47
 2013 338    73    71   21.0      3   2.04   2349   2089      0    702   4437   4668      0    0.0  0.000    231      0  0.000  0.000  0.000  0.000  0.000  0.000  0.000   2.34   0.00   0.05      0    231     87.0   1.22   0.00   1.00    4.00    4.00    3.78    0.09    0.05    0.03      0      0      0       0     116 14.66
 2013 339    74    72   21.0      3   2.09   2393   2159      0    709   4551   4848      0    0.0  0.000    297      0  0.000  0.000  0.000  0.000  0.000  0.000  0.000   2.32   0.00   0.06      0    297     87.3   1.22   0.00   1.00    4.00    4.00    3.82    0.09    0.05    0.03      0      0      0       0     119 14.86
 2013 340    75    73   21.0      3   2.13   2438   2219      0    715   4658   5033      0    0.0  0.000    376      0  0.000  0.000  0.000  0.000  0.000  0.000  0.000   2.30   0.00   0.07      0    376     87.5   1.22   0.00   1.00    4.00    4.00    3.87    0.09    0.05    0.04      0      0      0       0     123 14.92
 2013 341    76    74   21.0      3   2.11   2459   2222      0    726   4681   5117      0    0.0  0.000    436      0  0.462  0.642  0.000  0.000  0.000  0.000  0.000   2.30   0.00   0.09      0    436     85.6   1.22   0.00   1.00    3.99    4.00    3.94    0.09    0.05    0.04      0      0      0       0     126 15.01
 2013 342    77    75   21.0      4   2.04   2431   2278      0    725   4709   5154      0    0.0  0.000    445      0  0.672  0.782  0.000  0.000  0.000  0.000  0.000   2.28   0.00   0.09      0    445     83.7   1.22   0.00   1.00    3.97    4.00    3.94    0.09    0.05    0.04      0      0      0       0     126 15.27
 2013 343    78    76   21.0      4   1.96   2402   2320      0    724   4722   5172      0    0.0  0.000    451      0  0.756  0.838  0.000  0.000  0.000  0.000  0.000   2.28   0.00   0.09      0    451     81.5   1.22   0.00   1.00    3.95    3.99    3.94    0.09    0.05    0.04      0      0      0       0     126 15.26
 2013 344    79    77   21.0      4   1.88   2370   2355      0    722   4726   5180      0    0.0  0.000    455      0  0.792  0.862  0.000  0.000  0.000  0.000  0.000   2.28   0.00   0.09      0    455     79.3   1.22   0.00   1.00    3.93    3.98    3.93    0.09    0.05    0.04      0      0      0       0     126 15.38
 2013 345    80    78   21.0      4   1.88   2337   2396      0    726   4733   5322      0    0.0  0.000    589      0  0.000  0.000  0.000  0.000  0.000  0.000  0.000   2.27   0.00   0.11      0    589     80.5   1.22   0.00   1.00    3.93    4.00    3.97    0.09    0.05    0.04      0      0      0       0     126 15.27
 2013 346    81    79   21.0      4   1.88   2301   2430      0    729   4731   5451      0    0.0  0.000    720      0  0.000  0.000  0.000  0.000  0.000  0.000  0.000   2.27   0.00   0.13      0    720     81.7   1.22   0.00   1.00    3.93    4.00    4.00    0.09    0.06    0.04      0      0      0       0     126 15.17
 2013 347    82    80   21.0      4   1.88   2264   2460      0    733   4724   5575      0    0.0  0.000    851      0  0.000  0.000  0.000  0.000  0.000  0.000  0.000   2.28   0.00   0.15      0    851     83.1   1.22   0.00   1.00    3.93    4.00    4.00    0.09    0.06    0.04      0      0      0       0     126 15.14
 2013 348    83    81   21.0      4   1.88   2225   2486      0    736   4711   5693      0    0.0  0.000    982      0  0.000  0.000  0.000  0.000  0.000  0.000  0.000   2.28   0.00   0.17      0    982     84.5   1.22   0.00   1.00    3.94    4.00    4.00    0.09    0.06    0.04      0      0      0       0     126 14.94
 2013 349    84    82   21.0      4   1.88   2183   2512      0    739   4695   5813      0    0.0  0.000   1118      0  0.000  0.000  0.000  0.000  0.000  0.000  0.000   2.29   0.00   0.19      0   1118     86.1   1.22   0.00   1.00    3.94    4.00    4.00    0.09    0.06    0.04      0      0      0       0     126 14.95
 2013 350    85    83   21.0      4   1.88   2140   2535      0    742   4675   5927      0    0.0  0.000   1252      0  0.000  0.000  0.000  0.000  0.000  0.000  0.000   2.30   0.00   0.21      0   1252     87.9   1.22   0.00   1.00    3.95    4.00    4.00    0.09    0.06    0.04      0      0      0       0     126 14.85
 2013 351    86    84   21.0      4   1.88   2095   2558      0    746   4652   6043      0    0.0  0.000   1391      0  0.000  0.000  0.000  0.000  0.000  0.000  0.000   2.31   0.00   0.23      0   1391     89.8   1.22   0.00   1.00    3.96    4.00    4.00    0.09    0.06    0.04      0      0      0       0     126 14.90
 2013 352    87    85   21.0      4   1.88   2047   2580      0    749   4627   6157      0    0.0  0.000   1531      0  0.000  0.000  0.000  0.000  0.000  0.000  0.000   2.32   0.00   0.25      0   1531     91.9   1.22   0.00   1.00    3.96    4.00    4.00    0.09    0.06    0.04      0      0      0       0     126 14.86
 2013 353    88    86   21.0      5   1.88   2047   2580    128    757   4627   6286    988   13.0  0.020   1659      6  0.000  0.000  0.000  0.000  0.000  0.000  0.000   2.28   7.74   0.26      0   1659     91.9   1.22   0.00   1.00    3.99    4.00    4.00    0.09    0.06    0.04      0      0      0       0     126 14.97
 2013 354    89    87   21.0      5   1.88   2047   2580    257    773   4627   6414    988   26.0  0.040   1787      6  0.000  0.000  0.000  0.000  0.000  0.000  0.000   2.23  14.37   0.28      0   1787     91.9   1.22   0.00   1.00    4.00    4.00    4.00    0.10    0.06    0.04      0      0      0       0     126 14.15
 2013 355    90    88   21.0      5   1.88   2047   2580    385    790   4627   6543    988   39.0  0.059   1916      6  0.000  0.000  0.000  0.000  0.000  0.000  0.000   2.18  20.10   0.29      0   1916     91.9   1.22   0.00   1.00    4.00    4.00    4.00    0.10    0.06    0.05      0      0      0       0     126 13.75
 2013 356    91    89   21.0      5   1.88   2047   2580    514    806   4627   6671    988   52.0  0.077   2044      6  0.000  0.000  0.000  0.000  0.000  0.000  0.000   2.14  25.12   0.31      0   2044     91.9   1.22   0.00   1.00    4.00    4.00    4.00    0.10    0.06    0.05      0      0      0       0     126 15.25
 2013 357    92    90   21.0      5   1.88   2047   2580    642    829   4627   6799    988   65.0  0.094   2173      6  0.000  0.000  0.000  0.000  0.000  0.000  0.000   2.09  29.55   0.32      0   2173     91.9   1.22   0.00   1.00    4.00    4.00    4.00    0.10    0.07    0.05      0      0      0       0     126 15.35
 2013 358    93    91   21.0      5   1.88   2047   2580    770    861   4627   6928    988   78.0  0.111   2301      6  0.000  0.089  0.000  0.000  0.000  0.000  0.000   2.04  33.48   0.33      0   2301     91.9   1.22   0.00   1.00    4.00    4.00    4.00    0.11    0.07    0.05      0      0      0       0     126 15.90
 2013 359    94    92   21.0      5   1.85   2047   2580    875    857   4627   7032    988   88.6  0.124   2406      6  0.335  0.557  0.000  0.000  0.000  0.000  0.000   2.00  36.37   0.34      0   2406     90.3   1.22   0.00   1.00    3.98    3.98    3.98    0.10    0.07    0.05      0      0      0       0     126 14.85
 2013 360    95    93   21.0      5   1.85   2047   2580   1003    881   4627   7161    988  101.6  0.140   2534      6  0.000  0.000  0.000  0.000  0.000  0.000  0.000   1.95  39.60   0.35      0   2534     90.3   1.22   0.00   1.00    4.00    4.00    4.00    0.11    0.07    0.06      0      0      0       0     126 15.25
 2013 361    96    94   21.0      5   1.82   2047   2580   1107    885   4627   7264    988  112.1  0.152   2638      6  0.351  0.568  0.000  0.000  0.000  0.000  0.000   1.91  41.97   0.36      0   2638     88.7   1.22   0.00   1.00    4.00    4.00    4.00    0.11    0.07    0.06      0      0      0       0     126 16.20
 2013 362    97    95   21.0      5   1.78   2047   2545   1205    881   4592   7328    988  122.0  0.164   2736      6  0.428  0.619  0.000  0.000  0.000  0.000  0.000   1.89  44.05   0.37      0   2736     86.8   1.22   0.00   1.00    4.00    4.00    4.00    0.11    0.07    0.06      0      0      0       0     126 15.20
 2013 363    98    96   21.0      5   1.71   2047   2516   1284    876   4563   7378    988  130.0  0.174   2814      6  0.708  0.806  0.000  0.000  0.000  0.000  0.000   1.87  45.61   0.38      0   2814     83.8   1.22   0.00   1.00    4.00    4.00    4.00    0.11    0.07    0.06      0      0      0       0     126 15.15
 2013 364    99    97   21.0      5   1.64   2047   2484   1354    872   4531   7416    988  137.1  0.183   2884      6  0.824  0.883  0.000  0.000  0.000  0.000  0.000   1.85  46.93   0.39      0   2884     80.3   1.22   0.00   1.00    4.00    4.00    4.00    0.11    0.07    0.06      0      0      0       0     126 15.20
 2013 365   100    98   21.0      5   1.60   2047   2433   1445    867   4480   7456    988  146.3  0.194   2976      6  0.523  0.682  0.000  0.000  0.000  0.000  0.000   1.83  48.56   0.40      0   2976     78.2   1.22   0.00   1.00    4.00    4.00    4.00    0.11    0.07    0.06      0      0      0       0     126 12.65
 2014 001   101    99   21.0      5   1.54   2047   2395   1522    863   4443   7495    988  154.1  0.203   3053      6  0.728  0.819  0.000  0.000  0.000  0.000  0.000   1.82  49.86   0.41      0   3053     75.4   1.22   0.00   1.00    4.00    4.00    4.00    0.11    0.07    0.06      0      0      0       0     126 14.45
 2014 002   102   100   21.0      5   1.48   2047   2347   1595    859   4395   7520    988  161.5  0.212   3125      6  0.794  0.863  0.000  0.000  0.000  0.000  0.000   1.81  51.02   0.42      0   3125     72.4   1.22   0.00   1.00    4.00    4.00    4.00    0.11    0.07    0.06      0      0      0       0     126 14.60
 2014 003   103   101   21.0      5   1.41   2047   2296   1656    855   4343   7530    988  167.7  0.220   3187      6  0.941  0.961  0.000  0.000  0.000  0.000  0.000   1.80  51.97   0.42      0   3187     69.0   1.22   0.00   1.00    4.00    4.00    4.00    0.11    0.07    0.06      0      0      0       0     126 14.45
 2014 004   104   102   21.0      5   1.34   2047   2245   1717    850   4292   7540    988  173.9  0.228   3248      6  0.958  0.973  0.000  0.000  0.000  0.000  0.000   1.79  52.87   0.43      0   3248     65.7   1.22   0.00   1.00    4.00    4.00    4.00    0.11    0.07    0.06      0      0      0       0     126 15.30
 2014 005   105   103   21.0      5   1.28   2047   2194   1778    846   4241   7550    988  180.0  0.235   3308      6  0.960  0.974  0.000  0.000  0.000  0.000  0.000   1.79  53.73   0.44      0   3308     62.5   1.22   0.00   1.00    4.00    4.00    4.00    0.11    0.07    0.06      0      0      0       0     126 16.15
 2014 006   106   104   21.0      5   1.22   2047   2142   1839    842   4190   7559    988  186.2  0.243   3369      6  0.953  0.969  0.000  0.000  0.000  0.000  0.000   1.78  54.57   0.45      0   3369     59.5   1.22   0.00   1.00    4.00    4.00    4.00    0.11    0.07    0.06      0      0      0       0     126 16.70
 2014 007   107   105   21.0      5   1.16   2047   2089   1902    838   4136   7569    988  192.6  0.251   3432      6  0.929  0.953  0.000  0.000  0.000  0.000  0.000   1.78  55.40   0.45      0   3432     56.8   1.22   0.00   1.00    4.00    4.00    4.00    0.11    0.07    0.06      0      0      0       0     126 15.30
 2014 008   108   106   21.0      5   1.11   2047   2035   1965    833   4082   7578    988  199.0  0.259   3496      6  0.916  0.945  0.000  0.000  0.000  0.000  0.000   1.77  56.22   0.46      0   3496     54.2   1.22   0.00   1.00    4.00    4.00    4.00    0.11    0.07    0.06      0      0      0       0     126 15.75
 2014 009   109   107   21.0      5   1.06   2047   1990   2029    829   4038   7597    988  205.5  0.267   3560      6  0.914  0.943  0.000  0.000  0.000  0.000  0.000   1.76  57.00   0.47      0   3560     51.7   1.22   0.00   1.00    4.00    4.00    4.00    0.11    0.07    0.06      0      0      0       0     126 13.95
 2014 010   110   108   21.0      5   1.01   2047   1944   2095    825   3991   7617    988  212.1  0.275   3625      6  0.891  0.928  0.000  0.000  0.000  0.000  0.000   1.75  57.78   0.48      0   3625     49.4   1.22   0.00   1.00    4.00    4.00    4.00    0.11    0.07    0.06      0      0      0       0     126 14.20
 2014 011   111   109   21.0      5   0.96   2047   1901   2157    821   3948   7636    988  218.4  0.282   3687      6  0.940  0.960  0.000  0.000  0.000  0.000  0.000   1.74  58.49   0.48      0   3687     47.1   1.22   0.00   1.00    4.00    4.00    4.00    0.11    0.07    0.06      0      0      0       0     126 14.65
 2014 012   112   110   21.0      5   0.92   2047   1889   2165    817   3936   7632    988  219.3  0.284   3696      6  0.932  0.955  0.000  0.000  0.000  0.000  0.000   1.74  58.59   0.48      0   3696     44.9   1.22   0.00   1.00    4.00    4.00    4.00    0.11    0.07    0.06      0      0      0       0     126 15.05
 2014 013   113   111   21.0      5   0.88   2047   1889   2174    813   3936   7640    988  220.1  0.285   3704      6  0.948  0.966  0.000  0.000  0.000  0.000  0.000   1.74  58.68   0.48      0   3704     42.7   1.22   0.00   1.00    4.00    4.00    4.00    0.11    0.07    0.06      0      0      0       0     126 15.30
 2014 014   114   112   21.0      5   0.83   2047   1889   2182    809   3936   7648    988  220.9  0.285   3712      6  0.937  0.958  0.000  0.000  0.000  0.000  0.000   1.73  58.77   0.49      0   3712     40.7   1.22   0.00   1.00    4.00    4.00    4.00    0.11    0.07    0.06      0      0      0       0     126 15.90
 2014 015   115   113   21.0      5   0.80   2047   1889   2190    805   3936   7657    988  221.8  0.286   3721      6  0.897  0.932  0.000  0.000  0.000  0.000  0.000   1.73  58.86   0.49      0   3721     38.9   1.22   0.00   1.00    4.00    4.00    4.00    0.11    0.07    0.06      0      0      0       0     126 13.75
 2014 016   116   114   21.0      5   0.80   2047   1892   2319    802   3939   7788    988  234.8  0.298   3849      6  0.000  0.000  0.000  0.000  0.000  0.000  0.000   1.67  60.23   0.49      0   3849     38.9   1.22   0.00   1.00    3.98    3.99    3.99    0.11    0.07    0.06      0      0      0       0     126 14.30
 2014 017   117   115   21.0      5   0.80   2047   1899   2447    798   3946   7923    988  247.8  0.309   3978      6  0.000  0.000  0.000  0.000  0.000  0.000  0.000   1.61  61.52   0.50      0   3978     38.9   1.22   0.00   1.00    3.98    3.99    3.99    0.11    0.07    0.06      0      0      0       0     126 14.95
 2014 018   118   116   21.0      5   0.80   2047   1906   2575    798   3953   8059    988  260.8  0.320   4106      6  0.000  0.000  0.000  0.000  0.000  0.000  0.000   1.56  62.72   0.51      0   4106     38.9   1.22   0.00   1.00    3.98    4.00    3.99    0.11    0.07    0.06      0      0      0       0     126 15.80
 2014 019   119   117   21.0      5   0.80   2047   1906   2575    798   3953   8059    988  260.8  0.320   4106      6  0.000  0.000  0.000  0.000  0.000  0.000  0.000   1.56  62.72   0.51      0   4106     38.9   1.22   0.00   1.00    3.98    4.00    3.99    0.10    0.07    0.06      0      0      0       0     126 16.45
 2014 020   120   118   21.0      5   0.80   2047   1906   2575    798   3953   8059    988  260.8  0.320   4106      6  0.000  0.000  0.000  0.000  0.000  0.000  0.000   1.56  62.72   0.51      0   4106     38.9   1.22   0.00   1.00    3.99    4.00    3.99    0.10    0.07    0.06      0      0      0       0     126 15.05
 2014 021   121   119   21.0      5   0.80   2047   1906   2575    798   3953   8059    988  260.8  0.320   4106      6  0.000  0.000  0.000  0.000  0.000  0.000  0.000   1.56  62.72   0.51      0   4106     38.9   1.22   0.00   1.00    3.99    4.00    3.99    0.10    0.07    0.06      0      0      0       0     126  0.00
 2014 022   122   120   21.0      5   0.80   2047   1906   2575    798   3953   8059    988  260.8  0.320   4106      6  0.000  0.000  0.000  0.000  0.000  0.000  0.000   1.56  62.72   0.51      0   4106     38.9   1.22   0.00   1.00    3.97    4.00    3.99    0.10    0.07    0.06      0      0      0       0     126 15.85
 2014 023   123   121   21.0      5   0.80   2047   1906   2575    798   3953   8059    988  260.8  0.320   4106      6  0.000  0.000  0.000  0.000  0.000  0.000  0.000   1.56  62.72   0.51      0   4106     38.9   1.22   0.00   1.00    3.95    4.00    3.99    0.10    0.07    0.06      0      0      0       0     126 15.50
 2014 024   124   122   21.0      5   0.80   2047   1906   2575    798   3953   8059    988  260.8  0.320   4106      6  0.000  0.000  0.000  0.000  0.000  0.000  0.000   1.56  62.72   0.51      0   4106     38.9   1.22   0.00   1.00    3.93    4.00    3.99    0.10    0.07    0.06      0      0      0       0     126 15.00
 2014 025   125   123   21.0      5   0.80   2047   1906   2575    798   3953   8059    988  260.8  0.320   4106      6  0.000  0.000  0.000  0.000  0.000  0.000  0.000   1.56  62.72   0.51      0   4106     38.9   1.22   0.00   1.00    3.91    4.00    3.98    0.10    0.07    0.06      0      0      0       0     126 15.95
 2014 026   126   124   21.0      5   0.80   2047   1906   2575    798   3953   8059    988  260.8  0.320   4106      6  0.000  0.000  0.000  0.000  0.000  0.000  0.000   1.56  62.72   0.51      0   4106     38.9   1.22   0.00   1.00    3.89    4.00    3.97    0.11    0.08    0.06      0      0      0       0     126 16.20
 2014 027   127   125   21.0      5   0.80   2047   1906   2575    798   3953   8059    988  260.8  0.320   4106      6  0.000  0.000  0.000  0.000  0.000  0.000  0.000   1.56  62.72   0.51      0   4106     38.9   1.22   0.00   1.00    3.87    4.00    3.95    0.11    0.08    0.07      0      0      0       0     126 16.35
 2014 028   128   126   21.0      5   0.80   2047   1906   2575    798   3953   8059    988  260.8  0.320   4106      6  0.000  0.000  0.000  0.000  0.000  0.000  0.000   1.56  62.72   0.51      0   4106     38.9   1.22   0.00   1.00    3.97    3.98    3.93    0.11    0.08    0.07      0      0      0       0     126 14.65
 2014 029   129   127   21.0      5   0.80   2047   1906   2575    798   3953   8059    988  260.8  0.320   4106      6  0.000  0.000  0.000  0.000  0.000  0.000  0.000   1.56  62.72   0.51      0   4106     38.9   1.22   0.00   1.00    4.00    3.96    3.91    0.12    0.09    0.07      0      0      0       0     126 14.35
 2014 030   130   128   21.0      5   0.80   2047   1906   2575    798   3953   8059    988  260.8  0.320   4106      6  0.000  0.000  0.000  0.000  0.000  0.000  0.000   1.56  62.72   0.51      0   4106     38.9   1.22   0.00   1.00    4.00    3.94    3.89    0.12    0.09    0.07      0      0      0       0     126 15.90
 2014 031   131   129   21.0      5   0.80   2047   1906   2575    798   3953   8059    988  260.8  0.320   4106      6  0.000  0.000  0.000  0.000  0.000  0.000  0.000   1.56  62.72   0.51      0   4106     38.9   1.22   0.00   1.00    3.98    3.92    3.87    0.13    0.10    0.08      0      0      0       0     126 15.20
 2014 032   132   130   21.0      5   0.80   2047   1906   2575    798   3953   8059    988  260.8  0.320   4106      6  0.000  0.000  0.000  0.000  0.000  0.000  0.000   1.56  62.72   0.51      0   4106     38.9   1.22   0.00   1.00    3.96    3.90    3.85    0.14    0.11    0.09      0      0      0       0     126 14.80
 2014 033   133   131   21.0      5   0.80   2047   1906   2575    798   3953   8059    988  260.8  0.320   4106      6  0.000  0.000  0.000  0.000  0.000  0.000  0.000   1.56  62.72   0.51      0   4106     38.9   1.22   0.00   1.00    3.94    3.88    3.83    0.15    0.12    0.10      0      0      0       0     126 12.55
 2014 034   134   132   21.0      5   0.80   2047   1906   2575    798   3953   8059    988  260.8  0.320   4106      6  0.000  0.000  0.000  0.000  0.000  0.000  0.000   1.56  62.72   0.51      0   4106     38.9   1.22   0.00   1.00    3.92    3.86    3.81    0.15    0.12    0.11      0      0      0       0     126 15.05
 2014 035   135   133   21.0      5   0.80   2047   1906   2575    798   3953   8059    988  260.8  0.320   4106      6  0.000  0.000  0.000  0.000  0.000  0.000  0.000   1.56  62.72   0.51      0   4106     38.9   1.22   0.00   1.00    4.00    3.85    3.79    0.15    0.12    0.11      0      0      0       0     126 15.95
 2014 036   136   134   21.0      5   0.80   2047   1906   2575    798   3953   8059    988  260.8  0.320   4106      6  0.000  0.000  0.000  0.000  0.000  0.000  0.000   1.56  62.72   0.51      0   4106     38.9   1.22   0.00   1.00    4.00    3.88    3.77    0.15    0.12    0.11      0      0      0       0     126 11.75
 2014 037   137   135   21.0      5   0.80   2047   1906   2575    798   3953   8059    988  260.8  0.320   4106      6  0.000  0.000  0.000  0.000  0.000  0.000  0.000   1.56  62.72   0.51      0   4106     38.9   1.22   0.00   1.00    4.00    3.90    3.75    0.15    0.12    0.11      0      0      0       0     126 13.70
 2014 038   138   136   21.0      5   0.80   2047   1906   2575    798   3953   8059    988  260.8  0.320   4106      6  0.000  0.000  0.000  0.000  0.000  0.000  0.000   1.56  62.72   0.51      0   4106     38.9   1.22   0.00   1.00    4.00    3.92    3.73    0.15    0.12    0.11      0      0      0       0     126 15.05
 2014 039   139   137   21.0      5   0.80   2047   1906   2575    798   3953   8059    988  260.8  0.320   4106      6  0.000  0.000  0.000  0.000  0.000  0.000  0.000   1.56  62.72   0.51      0   4106     38.9   1.22   0.00   1.00    4.00    3.95    3.71    0.15    0.12    0.11      0      0      0       0     126 15.60
 2014 040   140   138   21.0      5   0.80   2047   1906   2575    798   3953   8059    988  260.8  0.320   4106      6  0.000  0.000  0.000  0.000  0.000  0.000  0.000   1.56  62.72   0.51      0   4106     38.9   1.22   0.00   1.00    3.99    3.95    3.72    0.15    0.12    0.11      0      0      0       0     126 14.45
 2014 041   141   139   21.0      5   0.80   2047   1906   2575    798   3953   8059    988  260.8  0.320   4106      6  0.000  0.000  0.000  0.000  0.000  0.000  0.000   1.56  62.72   0.51      0   4106     38.9   1.22   0.00   1.00    3.97    3.94    3.72    0.16    0.12    0.11      0      0      0       0     126 11.65
 2014 042   142   140   21.0      5   0.80   2047   1906   2575    798   3953   8059    988  260.8  0.320   4106      6  0.000  0.000  0.000  0.000  0.000  0.000  0.000   1.56  62.72   0.51      0   4106     38.9   1.22   0.00   1.00    3.95    3.93    3.72    0.17    0.12    0.11      0      0      0       0     126 14.55
 2014 043   143   141   21.0      5   0.80   2047   1906   2575    798   3953   8059    988  260.8  0.320   4106      6  0.000  0.000  0.000  0.000  0.000  0.000  0.000   1.56  62.72   0.51      0   4106     38.9   1.22   0.00   1.00    3.94    3.91    3.71    0.18    0.13    0.11      0      0      0       0     126 13.00
 2014 044   144   142   21.0      5   0.80   2047   1906   2575    798   3953   8059    988  260.8  0.320   4106      6  0.000  0.000  0.000  0.000  0.000  0.000  0.000   1.56  62.72   0.51      0   4106     38.9   1.22   0.00   1.00    3.92    3.90    3.70    0.19    0.14    0.11      0      0      0       0     126 14.85
 2014 045   145   143   21.0      5   0.80   2047   1906   2575    798   3953   8059    988  260.8  0.320   4106      6  0.000  0.000  0.000  0.000  0.000  0.000  0.000   1.56  62.72   0.51      0   4106     38.9   1.22   0.00   1.00    3.90    3.88    3.69    0.20    0.14    0.11      0      0      0       0     126 14.40
 2014 046   146   144   21.0      5   0.80   2047   1906   2575    798   3953   8059    988  260.8  0.320   4106      6  0.000  0.000  0.000  0.000  0.000  0.000  0.000   1.56  62.72   0.51      0   4106     38.9   1.22   0.00   1.00    3.89    3.87    3.69    0.21    0.15    0.12      0      0      0       0     126 14.60
 2014 047   147   145   21.0      5   0.80   2047   1906   2575    798   3953   8059    988  260.8  0.320   4106      6  0.000  0.000  0.000  0.000  0.000  0.000  0.000   1.56  62.72   0.51      0   4106     38.9   1.22   0.00   1.00    3.88    3.85    3.68    0.21    0.16    0.12      0      0      0       0     126 15.50
