*SOIL TEMPERATURE OUTPUT FILE (DAILY)

*DSSAT Cropping System Model Ver. 4.7.2.000 -release      OCT 15, 2021; 17:59:34
                                                                                
*RUN   1        :             CSM335_date_1 MZCER047 ITSA1301    1              
 MODEL          : MZCER047 - Maize                                              
 EXPERIMENT     : ITSA1301 SG CALIBRATION SETUP OF SORGHUM SOWING DATES         
 DATA PATH      :                                                               
 TREATMENT  1   :             CSM335_date_1 MZCER047                            
  
! TAV  =    27.7
! TAMP =     5.2
!               Temperature (oC) by soil depth (cm):
!               Surface     0-5    5-15   15-30   30-53   53-77  77-100
@YEAR DOY   DAS    TS0D    TS1D    TS2D    TS3D    TS4D    TS5D    TS6D    
 2013 266     1    25.7    25.7    25.7    25.7    25.7    25.7    25.8
 2013 267     2    25.4    25.4    25.4    25.4    25.4    25.5    25.6
 2013 268     3    25.5    25.5    25.5    25.5    25.6    25.6    25.7
 2013 269     4    25.7    25.7    25.7    25.7    25.7    25.7    25.8
 2013 270     5    26.4    26.4    26.4    26.3    26.3    26.3    26.3
 2013 271     6    27.3    27.3    27.2    27.1    27.0    26.9    26.8
 2013 272     7    27.0    27.0    26.9    26.8    26.7    26.7    26.6
 2013 273     8    26.4    26.4    26.4    26.3    26.3    26.3    26.3
 2013 274     9    26.2    26.2    26.2    26.1    26.1    26.1    26.1
 2013 275    10    25.7    25.7    25.6    25.6    25.6    25.6    25.7
 2013 276    11    25.0    25.0    25.0    25.0    25.1    25.1    25.2
 2013 277    12    25.3    25.3    25.3    25.3    25.4    25.4    25.5
 2013 278    13    25.9    25.9    25.9    25.8    25.8    25.8    25.9
 2013 279    14    26.5    26.5    26.4    26.4    26.3    26.3    26.3
 2013 280    15    26.9    26.9    26.9    26.8    26.7    26.6    26.5
 2013 281    16    27.8    27.7    27.6    27.5    27.4    27.2    27.1
 2013 282    17    28.7    28.6    28.5    28.4    28.1    27.9    27.7
 2013 283    18    28.6    28.6    28.5    28.3    28.1    27.8    27.7
 2013 284    19    28.1    28.1    28.0    27.8    27.7    27.5    27.3
 2013 285    20    27.8    27.8    27.7    27.6    27.4    27.2    27.1
 2013 286    21    27.6    27.6    27.5    27.4    27.2    27.1    27.0
 2013 287    22    27.3    27.3    27.3    27.1    27.0    26.9    26.8
 2013 288    23    27.9    27.9    27.8    27.6    27.5    27.3    27.2
 2013 289    24    28.6    28.6    28.5    28.3    28.0    27.8    27.6
 2013 290    25    29.1    29.0    28.9    28.7    28.4    28.1    27.9
 2013 291    26    29.3    29.3    29.1    28.9    28.6    28.3    28.0
 2013 292    27    29.8    29.8    29.6    29.3    29.0    28.6    28.3
 2013 293    28    29.3    29.3    29.1    28.9    28.6    28.3    28.0
 2013 294    29    29.1    29.0    28.9    28.7    28.4    28.1    27.9
 2013 295    30    28.3    28.3    28.2    28.0    27.8    27.6    27.4
 2013 296    31    27.5    27.4    27.3    27.2    27.1    26.9    26.8
 2013 297    32    26.5    26.5    26.4    26.4    26.3    26.2    26.2
 2013 298    33    26.7    26.7    26.6    26.5    26.4    26.4    26.3
 2013 299    34    26.8    26.8    26.7    26.6    26.5    26.4    26.4
 2013 300    35    27.6    27.5    27.4    27.3    27.1    26.9    26.8
 2013 301    36    28.1    28.0    27.9    27.7    27.5    27.3    27.1
 2013 302    37    28.3    28.2    28.1    27.9    27.6    27.4    27.2
 2013 303    38    28.4    28.4    28.2    28.0    27.7    27.5    27.3
 2013 304    39    28.3    28.2    28.1    27.9    27.6    27.3    27.2
 2013 305    40    27.7    27.6    27.5    27.3    27.1    27.0    26.8
 2013 306    41    27.8    27.8    27.7    27.5    27.3    27.1    26.9
 2013 307    42    28.0    28.0    27.9    27.7    27.4    27.2    27.0
 2013 308    43    27.2    27.2    27.1    26.9    26.8    26.7    26.6
 2013 309    44    26.5    26.5    26.4    26.3    26.3    26.2    26.2
 2013 310    45    24.9    24.9    24.9    25.0    25.1    25.2    25.3
 2013 311    46    24.2    24.3    24.3    24.4    24.5    24.6    24.8
 2013 312    47    23.9    23.9    24.0    24.1    24.2    24.4    24.6
 2013 313    48    24.2    24.2    24.3    24.4    24.5    24.7    24.9
 2013 314    49    24.4    24.5    24.5    24.6    24.7    24.9    25.0
 2013 315    50    25.8    25.8    25.8    25.7    25.7    25.8    25.8
 2013 316    51    25.8    25.8    25.7    25.7    25.7    25.7    25.8
 2013 317    52    25.7    25.7    25.7    25.7    25.7    25.7    25.8
 2013 318    53    25.6    25.6    25.6    25.6    25.6    25.7    25.8
 2013 319    54    25.6    25.6    25.6    25.6    25.6    25.6    25.7
 2013 320    55    25.5    25.5    25.5    25.5    25.5    25.6    25.7
 2013 321    56    25.4    25.4    25.4    25.4    25.5    25.5    25.6
 2013 322    57    25.4    25.4    25.4    25.4    25.4    25.5    25.6
 2013 323    58    25.4    25.4    25.4    25.4    25.4    25.5    25.6
 2013 324    59    25.5    25.5    25.5    25.5    25.5    25.6    25.6
 2013 325    60    25.7    25.7    25.7    25.7    25.7    25.7    25.8
 2013 326    61    25.8    25.8    25.8    25.8    25.8    25.8    25.9
 2013 327    62    26.0    25.9    25.9    25.9    25.9    25.9    25.9
 2013 328    63    26.0    26.0    26.0    26.0    26.0    26.0    26.0
 2013 329    64    26.0    26.0    26.0    26.0    25.9    25.9    26.0
 2013 330    65    25.4    25.4    25.4    25.5    25.5    25.5    25.6
 2013 331    66    25.3    25.3    25.3    25.3    25.4    25.5    25.5
 2013 332    67    25.2    25.2    25.2    25.3    25.3    25.4    25.5
 2013 333    68    25.0    25.0    25.1    25.1    25.2    25.3    25.4
 2013 334    69    24.8    24.9    24.9    25.0    25.1    25.2    25.3
 2013 335    70    25.1    25.1    25.2    25.2    25.3    25.4    25.5
 2013 336    71    25.1    25.2    25.2    25.3    25.3    25.4    25.6
 2013 337    72    25.3    25.3    25.3    25.3    25.4    25.5    25.6
 2013 338    73    25.5    25.5    25.5    25.6    25.6    25.7    25.7
 2013 339    74    25.9    25.9    25.9    25.9    25.9    25.9    26.0
 2013 340    75    26.2    26.2    26.2    26.2    26.2    26.2    26.2
 2013 341    76    26.5    26.5    26.5    26.4    26.4    26.4    26.3
 2013 342    77    26.8    26.7    26.7    26.6    26.6    26.5    26.5
 2013 343    78    27.0    27.0    26.9    26.8    26.7    26.6    26.6
 2013 344    79    27.1    27.1    27.0    27.0    26.8    26.7    26.7
 2013 345    80    27.2    27.2    27.1    27.1    27.0    26.9    26.8
 2013 346    81    27.2    27.2    27.1    27.1    27.0    26.9    26.8
 2013 347    82    27.1    27.1    27.0    27.0    26.9    26.8    26.7
 2013 348    83    26.9    26.9    26.9    26.8    26.8    26.7    26.6
 2013 349    84    26.7    26.7    26.7    26.7    26.6    26.6    26.5
 2013 350    85    26.6    26.6    26.5    26.5    26.5    26.5    26.5
 2013 351    86    26.5    26.5    26.5    26.5    26.4    26.4    26.4
 2013 352    87    26.4    26.4    26.4    26.4    26.4    26.4    26.4
 2013 353    88    26.5    26.5    26.5    26.5    26.5    26.4    26.4
 2013 354    89    26.4    26.4    26.4    26.4    26.4    26.4    26.4
 2013 355    90    26.3    26.3    26.3    26.3    26.3    26.4    26.4
 2013 356    91    26.5    26.5    26.5    26.5    26.5    26.5    26.5
 2013 357    92    26.8    26.8    26.8    26.8    26.7    26.7    26.7
 2013 358    93    27.3    27.3    27.2    27.2    27.1    27.0    26.9
 2013 359    94    27.3    27.3    27.3    27.2    27.1    27.0    26.9
 2013 360    95    27.6    27.6    27.5    27.5    27.3    27.2    27.1
 2013 361    96    27.8    27.7    27.7    27.6    27.4    27.3    27.1
 2013 362    97    27.4    27.4    27.3    27.3    27.2    27.0    27.0
 2013 363    98    26.9    26.9    26.9    26.9    26.8    26.8    26.8
 2013 364    99    27.2    27.2    27.2    27.1    27.0    26.9    26.9
 2013 365   100    26.4    26.4    26.5    26.5    26.5    26.5    26.6
 2014 001   101    25.8    25.9    25.9    26.0    26.1    26.2    26.3
 2014 002   102    25.7    25.7    25.8    25.9    26.0    26.1    26.2
 2014 003   103    25.6    25.6    25.7    25.8    26.0    26.1    26.2
 2014 004   104    25.7    25.8    25.9    26.0    26.1    26.2    26.3
 2014 005   105    27.0    27.0    27.0    27.0    26.9    26.9    26.8
 2014 006   106    27.9    27.8    27.8    27.7    27.5    27.3    27.2
 2014 007   107    28.4    28.3    28.2    28.1    27.8    27.6    27.4
 2014 008   108    28.6    28.5    28.4    28.3    28.0    27.7    27.5
 2014 009   109    27.9    27.9    27.9    27.8    27.6    27.4    27.3
 2014 010   110    27.0    27.0    27.0    27.0    27.0    26.9    26.9
 2014 011   111    26.5    26.5    26.6    26.6    26.7    26.7    26.7
 2014 012   112    26.4    26.5    26.5    26.6    26.6    26.7    26.7
 2014 013   113    26.6    26.7    26.7    26.8    26.8    26.8    26.8
 2014 014   114    27.4    27.4    27.4    27.3    27.3    27.2    27.1
 2014 015   115    27.5    27.5    27.5    27.4    27.4    27.2    27.1
 2014 016   116    27.5    27.5    27.5    27.5    27.4    27.4    27.3
 2014 017   117    27.5    27.5    27.5    27.5    27.4    27.4    27.3
 2014 018   118    27.6    27.6    27.6    27.6    27.5    27.4    27.3
 2014 019   119    27.6    27.6    27.6    27.6    27.5    27.4    27.3
 2014 020   120    27.7    27.7    27.7    27.7    27.6    27.5    27.4
 2014 021   121    27.6    27.6    27.6    27.6    27.5    27.4    27.3
 2014 022   122    27.8    27.8    27.8    27.7    27.7    27.5    27.4
 2014 023   123    27.5    27.5    27.5    27.5    27.4    27.3    27.3
 2014 024   124    27.2    27.2    27.2    27.3    27.3    27.2    27.1
 2014 025   125    27.8    27.8    27.8    27.7    27.6    27.5    27.4
 2014 026   126    28.4    28.4    28.4    28.3    28.1    27.8    27.6
 2014 027   127    28.7    28.6    28.6    28.4    28.2    28.0    27.7
 2014 028   128    28.6    28.6    28.5    28.4    28.2    28.0    27.7
 2014 029   129    28.7    28.7    28.6    28.5    28.3    28.1    27.9
 2014 030   130    28.7    28.6    28.6    28.5    28.3    28.0    27.8
 2014 031   131    28.5    28.5    28.4    28.3    28.2    27.9    27.7
 2014 032   132    28.0    28.0    28.0    28.0    27.9    27.7    27.6
 2014 033   133    27.5    27.5    27.5    27.6    27.5    27.5    27.4
 2014 034   134    27.5    27.5    27.6    27.6    27.6    27.5    27.4
 2014 035   135    27.3    27.4    27.4    27.5    27.5    27.4    27.3
 2014 036   136    26.1    26.2    26.3    26.5    26.7    26.8    26.9
 2014 037   137    25.9    25.9    26.1    26.3    26.5    26.7    26.8
 2014 038   138    26.3    26.3    26.5    26.7    26.8    26.9    27.0
 2014 039   139    26.1    26.2    26.4    26.6    26.8    26.9    27.0
 2014 040   140    25.6    25.7    25.9    26.2    26.5    26.7    26.8
 2014 041   141    25.3    25.3    25.5    25.6    25.9    26.1    26.3
 2014 042   142    25.4    25.5    25.6    25.7    25.9    26.1    26.2
 2014 043   143    24.9    25.0    25.1    25.2    25.4    25.7    25.9
 2014 044   144    24.8    24.8    24.9    25.1    25.3    25.5    25.7
 2014 045   145    24.9    24.9    25.0    25.2    25.4    25.6    25.8
 2014 046   146    25.8    25.8    25.9    26.0    26.2    26.4    26.5
 2014 047   147    25.7    25.7    25.8    25.9    26.1    26.3    26.4
