*SOIL INORGANIC N BALANCE

*DSSAT Cropping System Model Ver. 4.7.2.000 -release      OCT 15, 2021; 17:59:34
                                                                                
*RUN   1        :             CSM335_date_1 MZCER047 ITSA1301    1              
 MODEL          : MZCER047 - Maize                                              
 EXPERIMENT     : ITSA1301 SG CALIBRATION SETUP OF SORGHUM SOWING DATES         
 DATA PATH      :                                                               
 TREATMENT  1   :             CSM335_date_1 MZCER047                            
  


!SOIL INORGANIC N BALANCE                         Initial               Final
!                                                Year/Doy            Year/Doy
!                                                2013/266            2014/047
!                                               (kg[N]/ha)          (kg[N]/ha)
! Soil N state variables:
!   Soil NO3                                         0.00               37.68
!   Soil NH4                                         8.40                5.19
!   Soil Urea                                        0.00                0.00
!   Soil N gases                                     0.00                0.03

! N additions:
!   Fertilizer N                                    64.00
!   Mineralized N                                  103.65

! N subtractions:
!   N immobilized                                                       13.53
!   N leached                                                            2.86
!   N loss to tile drainage                                              0.00
!   N Uptake From Soil                                                 115.73
!   NH3 loss                                                             0.00
!   N2O loss                                                             0.13
!   N2 loss                                                              0.00
!   NO loss                                                              0.90

!   Total N balance                                176.05              176.05
!   Balance                                                            -0.000
