*SOM N DAILY OUTPUT FILE

*DSSAT Cropping System Model Ver. 4.7.2.000 -release      OCT 15, 2021; 17:59:34
                                                                                
*RUN   1        :             CSM335_date_1 MZCER047 ITSA1301    1              
 MODEL          : MZCER047 - Maize                                              
 EXPERIMENT     : ITSA1301 SG CALIBRATION SETUP OF SORGHUM SOWING DATES         
 DATA PATH      :                                                               
 TREATMENT  1   :             CSM335_date_1 MZCER047                            
  
!                                                                                                                                                                                                                                                                                                                                                                                                                                                Cumul.
!               <---- SOM N in top layers ----> <---------------- Total Soil Organic Nitrogen ----------------> <-------- Active Soil Organic Nitrogen (SOM1) --------> <---- Intermediate Soil Organic N (SOM2) -----> <------- Passive Soil Organic N (SOM3) -------> <----------------- Litter Nitrogen -------------------> <------------- Metabolic Litter Nitrogen -------------> <------------ Structural Litter Nitrogen ------------->  Res. N
!               20cm-kg  20cm-% 40cm-kg  40cm-%   Total Surface    Soil     0-5    5-15   15-30   30-53  53-100 Surface    Soil     0-5    5-15   15-30   30-53  53-100    Soil     0-5    5-15   15-30   30-53  53-100    Soil     0-5    5-15   15-30   30-53  53-100 Surface    Soil     0-5    5-15   15-30   30-53  53-100 Surface    Soil     0-5    5-15   15-30   30-53  53-100 Surface    Soil     0-5    5-15   15-30   30-53  53-100 (kg/ha)
@YEAR DOY   DAS  SNS20D  SN%20D  SNS40D  SN%40D    SOND    SN0D    SNTD    SN1D    SN2D    SN3D    SN4D   SN5+D   S1N0D   S1NTD   S1N1D   S1N2D   S1N3D   S1N4D  S1N5+D   S2NTD   S2N1D   S2N2D   S2N3D   S2N4D  S2N5+D   S3NTD   S3N1D   S3N2D   S3N3D   S3N4D  S3N5+D    LN0D    LNTD    LN1D    LN2D    LN3D    LN4D   LN5+D   MEN0D   MENTD   MEN1D   MEN2D   MEN3D   MEN4D  MEN5+D   STN0D   STNTD   STN1D   STN2D   STN3D   STN4D  STN5+D   RESNC
 2013 265     0    1980   0.071    2163   0.077   11186       0   11186     495     991    1488    2696    5516       0     116      18      37      55       2       4    1300     205     411     618      21      44    9765     271     542     814    2672    5467    0.00    4.50    0.67    1.06    1.10    0.95    0.72    0.00    4.11    0.61    0.97    1.00    0.87    0.66    0.00    0.39    0.06    0.09    0.10    0.08    0.06       0
 2013 266     1    1979   0.071    2163   0.077   11184       0   11184     495     991    1487    2696    5516       0     115      18      37      55       2       4    1299     205     411     618      21      44    9765     271     542     814    2672    5467    0.00    4.34    0.64    1.03    1.06    0.92    0.70    0.00    3.95    0.58    0.93    0.96    0.83    0.63    0.00    0.39    0.06    0.09    0.10    0.08    0.06       0
 2013 267     2    1978   0.071    2162   0.077   11183       0   11183     495     990    1487    2696    5516       0     115      18      36      54       2       4    1299     205     411     618      21      44    9765     271     542     814    2672    5467    0.00    4.18    0.62    0.99    1.02    0.88    0.67    0.00    3.79    0.56    0.90    0.92    0.80    0.61    0.00    0.39    0.06    0.09    0.10    0.08    0.06       0
 2013 268     3    1978   0.071    2162   0.077   11182       0   11182     494     990    1486    2696    5515       0     114      18      36      54       2       4    1299     205     411     617      21      44    9765     271     542     814    2672    5467    0.00    4.04    0.60    0.96    0.98    0.85    0.65    0.00    3.65    0.54    0.86    0.89    0.77    0.59    0.00    0.39    0.06    0.09    0.09    0.08    0.06       0
 2013 269     4    1977   0.071    2161   0.077   11180       0   11180     494     989    1485    2696    5515       0     113      18      36      54       2       4    1299     205     411     617      21      44    9765     271     542     814    2672    5467    0.00    3.91    0.58    0.92    0.95    0.82    0.63    0.00    3.52    0.53    0.83    0.86    0.74    0.56    0.00    0.39    0.06    0.09    0.09    0.08    0.06       0
 2013 270     5    1976   0.071    2161   0.077   11179       0   11179     494     989    1485    2696    5515       0     112      18      35      53       2       4    1298     205     411     617      21      44    9765     271     542     814    2672    5467    0.00    3.77    0.56    0.89    0.92    0.80    0.60    0.00    3.38    0.50    0.80    0.82    0.71    0.54    0.00    0.39    0.06    0.09    0.09    0.08    0.06       0
 2013 271     6    1976   0.071    2161   0.077   11178       0   11178     494     989    1484    2696    5515       0     112      18      35      53       2       4    1298     205     411     617      21      44    9765     271     542     814    2672    5467    0.00    3.63    0.54    0.86    0.88    0.77    0.58    0.00    3.24    0.48    0.77    0.79    0.68    0.52    0.00    0.39    0.06    0.09    0.09    0.08    0.06       0
 2013 272     7    1975   0.071    2160   0.077   11177       0   11177     494     988    1484    2696    5515       0     111      18      35      52       2       4    1298     205     411     617      21      44    9765     271     542     814    2672    5467    0.00    3.50    0.52    0.83    0.85    0.74    0.56    0.00    3.11    0.46    0.74    0.76    0.66    0.50    0.00    0.39    0.06    0.09    0.09    0.08    0.06       0
 2013 273     8    1974   0.071    2160   0.077   11175       0   11175     494     988    1483    2696    5515       0     110      17      35      52       2       4    1297     205     411     617      21      44    9765     271     542     814    2672    5467    0.00    3.36    0.49    0.80    0.82    0.71    0.54    0.00    2.97    0.43    0.71    0.73    0.63    0.48    0.00    0.38    0.06    0.09    0.09    0.08    0.06       0
 2013 274     9    1973   0.070    2160   0.077   11174       0   11174     493     987    1483    2696    5515       0     109      17      34      51       2       4    1297     205     411     617      21      44    9764     271     542     814    2672    5467    0.00    3.23    0.47    0.76    0.79    0.69    0.52    0.00    2.84    0.41    0.67    0.70    0.61    0.46    0.00    0.38    0.06    0.09    0.09    0.08    0.06       0
 2013 275    10    1973   0.070    2159   0.077   11173       0   11173     493     987    1482    2696    5515       0     108      17      34      51       2       4    1297     205     410     616      21      44    9764     271     542     814    2672    5467    0.00    3.10    0.45    0.73    0.76    0.66    0.50    0.00    2.71    0.39    0.64    0.66    0.58    0.44    0.00    0.38    0.06    0.09    0.09    0.08    0.06       0
 2013 276    11    1972   0.070    2159   0.077   11171       0   11171     493     986    1481    2696    5515       0     107      17      34      50       2       4    1297     205     410     616      21      44    9764     271     542     814    2672    5467    0.00    2.97    0.43    0.69    0.72    0.64    0.49    0.00    2.59    0.37    0.60    0.63    0.56    0.43    0.00    0.38    0.06    0.09    0.09    0.08    0.06       0
 2013 277    12    1971   0.070    2158   0.077   11170       0   11170     493     986    1480    2696    5515       0     106      17      33      50       2       4    1296     205     410     616      21      44    9764     271     542     814    2672    5467    0.00    2.85    0.41    0.66    0.69    0.62    0.47    0.00    2.47    0.35    0.57    0.59    0.54    0.41    0.00    0.38    0.06    0.09    0.09    0.08    0.06       0
 2013 278    13    1970   0.070    2158   0.077   11168       0   11168     493     986    1480    2696    5515       0     105      17      33      49       2       4    1296     205     410     616      21      44    9764     271     542     814    2672    5467    0.00    2.73    0.39    0.63    0.66    0.60    0.46    0.00    2.35    0.33    0.54    0.56    0.52    0.40    0.00    0.38    0.06    0.09    0.09    0.08    0.06       0
 2013 279    14    1969   0.070    2157   0.077   11167       0   11167     492     985    1479    2696    5515       0     104      16      33      49       2       4    1296     205     410     616      21      44    9764     271     542     814    2671    5467    0.00    2.62    0.37    0.60    0.63    0.58    0.44    0.00    2.25    0.32    0.51    0.53    0.50    0.38    0.00    0.38    0.06    0.09    0.09    0.08    0.06       0
 2013 280    15    1969   0.070    2157   0.077   11165       0   11165     492     985    1478    2695    5515       0     103      16      32      48       2       4    1296     205     410     616      21      44    9764     271     542     814    2671    5467    0.00    2.52    0.36    0.58    0.60    0.55    0.43    0.00    2.14    0.31    0.49    0.50    0.47    0.37    0.00    0.38    0.06    0.09    0.09    0.08    0.06       0
 2013 281    16    1968   0.070    2156   0.077   11164       0   11164     492     984    1478    2695    5514       0     102      16      32      48       2       4    1295     205     410     616      21      44    9764     271     542     814    2671    5467    0.00    2.42    0.35    0.55    0.57    0.53    0.42    0.00    2.04    0.29    0.46    0.48    0.45    0.36    0.00    0.38    0.06    0.09    0.09    0.08    0.06       0
 2013 282    17    1967   0.070    2156   0.077   11163       0   11163     492     984    1477    2695    5514       0     101      16      32      47       2       4    1295     205     410     615      21      43    9764     271     542     814    2671    5467    0.00    2.32    0.34    0.53    0.54    0.51    0.40    0.00    1.95    0.28    0.44    0.45    0.43    0.34    0.00    0.37    0.06    0.09    0.09    0.08    0.06       0
 2013 283    18    1966   0.070    2156   0.077   11161       0   11161     492     983    1476    2695    5514       0     100      16      31      47       2       4    1295     205     410     615      21      43    9764     271     542     814    2671    5467    0.00    2.23    0.33    0.50    0.51    0.49    0.39    0.00    1.85    0.28    0.41    0.42    0.41    0.33    0.00    0.37    0.06    0.09    0.09    0.08    0.06       0
 2013 284    19    1966   0.070    2155   0.077   11160       0   11160     492     983    1476    2695    5514       0      99      16      31      46       2       4    1295     205     410     615      21      43    9764     271     542     814    2671    5467    0.00    2.13    0.32    0.48    0.49    0.47    0.38    0.00    1.76    0.26    0.39    0.40    0.39    0.32    0.00    0.37    0.06    0.09    0.09    0.08    0.06       0
 2013 285    20    1965   0.070    2155   0.077   11158       0   11158     491     983    1475    2695    5514       0      98      16      31      46       2       4    1294     205     410     615      21      43    9764     271     542     814    2671    5466    0.00    2.04    0.30    0.46    0.46    0.46    0.37    0.00    1.67    0.25    0.37    0.37    0.38    0.31    0.00    0.37    0.06    0.09    0.09    0.08    0.06       0
 2013 286    21    1964   0.070    2154   0.077   11157       0   11157     491     982    1474    2695    5514       0      97      16      30      45       2       4    1294     205     410     615      21      43    9764     271     542     814    2671    5466    0.00    1.96    0.29    0.43    0.44    0.44    0.35    0.00    1.59    0.23    0.35    0.35    0.36    0.29    0.00    0.37    0.05    0.09    0.09    0.08    0.06       0
 2013 287    22    1963   0.070    2154   0.077   11156       0   11156     491     982    1474    2695    5514       0      96      15      30      45       2       4    1294     205     409     615      21      43    9764     271     542     814    2671    5466    0.00    1.88    0.27    0.41    0.42    0.42    0.34    0.00    1.51    0.22    0.33    0.33    0.35    0.28    0.00    0.37    0.05    0.09    0.09    0.08    0.06       0
 2013 288    23    1962   0.070    2153   0.077   11154       0   11154     491     981    1473    2695    5514       0      95      15      30      44       2       4    1293     205     409     615      21      43    9764     271     542     814    2671    5466    0.00    1.81    0.26    0.40    0.40    0.41    0.33    0.00    1.44    0.21    0.31    0.31    0.33    0.27    0.00    0.37    0.05    0.09    0.09    0.08    0.06       0
 2013 289    24    1962   0.070    2153   0.077   11153       0   11153     491     981    1472    2695    5514       0      95      15      29      44       2       4    1293     205     409     614      21      43    9763     271     542     814    2671    5466    0.00    1.74    0.25    0.38    0.38    0.40    0.33    0.00    1.37    0.20    0.29    0.30    0.32    0.27    0.00    0.37    0.05    0.09    0.09    0.08    0.06       0
 2013 290    25    1961   0.070    2153   0.077   11152       0   11152     490     981    1472    2695    5514       0      94      15      29      43       2       4    1293     205     409     614      21      43    9763     271     542     814    2671    5466    0.00    1.68    0.24    0.37    0.37    0.38    0.32    0.00    1.31    0.19    0.28    0.28    0.31    0.26    0.00    0.37    0.05    0.09    0.09    0.08    0.06       0
 2013 291    26    1960   0.070    2152   0.077   11150       0   11150     490     980    1471    2695    5514       0      93      15      29      43       2       4    1293     205     409     614      21      43    9763     271     542     814    2671    5466    0.00    1.63    0.24    0.35    0.36    0.37    0.31    0.00    1.26    0.18    0.27    0.27    0.29    0.25    0.00    0.37    0.05    0.09    0.09    0.08    0.06       0
 2013 292    27    1960   0.070    2152   0.077   11149       0   11149     490     980    1471    2695    5514       0      92      15      29      43       2       4    1292     205     409     614      21      43    9763     271     542     814    2671    5466    0.00    1.58    0.23    0.34    0.34    0.36    0.30    0.00    1.21    0.18    0.26    0.25    0.28    0.24    0.00    0.36    0.05    0.09    0.09    0.08    0.06       0
 2013 293    28    1959   0.070    2151   0.077   11148       0   11148     490     980    1470    2695    5514       0      91      15      28      42       2       4    1292     205     409     614      21      43    9763     271     542     814    2671    5466    0.00    1.53    0.23    0.33    0.33    0.34    0.29    0.00    1.16    0.17    0.25    0.24    0.27    0.23    0.00    0.36    0.05    0.09    0.09    0.08    0.06       0
 2013 294    29    1958   0.070    2151   0.077   11147       0   11147     490     979    1470    2695    5514       0      91      15      28      42       2       4    1292     204     409     614      21      43    9763     271     542     814    2671    5466    0.00    1.48    0.22    0.33    0.32    0.33    0.28    0.00    1.12    0.16    0.24    0.24    0.26    0.22    0.00    0.36    0.05    0.09    0.09    0.08    0.06       0
 2013 295    30    1958   0.070    2151   0.077   11146       0   11146     490     979    1469    2695    5513       0      90      14      28      42       2       4    1292     204     409     614      21      43    9763     271     542     814    2671    5466    0.00    1.45    0.21    0.32    0.32    0.32    0.27    0.00    1.08    0.16    0.24    0.23    0.25    0.22    0.00    0.36    0.05    0.09    0.09    0.08    0.06       0
 2013 296    31    1957   0.070    2150   0.077   11145       0   11145     490     979    1469    2695    5513       0      89      14      28      41       2       4    1291     204     409     614      21      43    9763     271     542     814    2671    5466    0.00    1.42    0.21    0.32    0.31    0.31    0.27    0.00    1.05    0.16    0.23    0.22    0.24    0.21    0.00    0.36    0.05    0.09    0.09    0.08    0.06       0
 2013 297    32    1957   0.070    2150   0.077   11144       0   11144     489     979    1468    2695    5513       0      89      14      28      41       2       4    1291     204     409     613      21      43    9763     271     542     814    2671    5466    0.00    1.39    0.21    0.31    0.31    0.30    0.26    0.00    1.03    0.15    0.23    0.22    0.23    0.20    0.00    0.36    0.05    0.09    0.09    0.08    0.06       0
 2013 298    33    1956   0.070    2150   0.077   11144       0   11144     489     978    1468    2695    5513       0      88      14      28      41       2       4    1291     204     409     613      21      43    9763     271     542     814    2671    5466    0.00    1.37    0.20    0.31    0.30    0.29    0.25    0.00    1.00    0.15    0.23    0.22    0.22    0.19    0.00    0.36    0.05    0.09    0.09    0.08    0.06       0
 2013 299    34    1956   0.070    2150   0.077   11143       0   11143     489     978    1468    2695    5513       0      88      14      28      41       2       4    1291     204     409     613      21      43    9763     271     542     814    2671    5466    0.00    1.35    0.20    0.31    0.30    0.29    0.25    0.00    0.98    0.14    0.23    0.22    0.21    0.19    0.00    0.36    0.05    0.09    0.09    0.08    0.06       0
 2013 300    35    1956   0.070    2150   0.077   11142       0   11142     489     978    1468    2695    5513       0      88      14      27      40       2       4    1291     204     409     613      21      43    9763     271     542     814    2671    5466    0.00    1.34    0.20    0.31    0.31    0.28    0.24    0.00    0.97    0.14    0.23    0.22    0.20    0.18    0.00    0.36    0.05    0.09    0.09    0.08    0.06       0
 2013 301    36    1955   0.070    2149   0.077   11142       0   11142     489     978    1467    2695    5513       0      87      14      27      40       2       4    1291     204     409     613      21      43    9763     271     542     814    2671    5466    0.00    1.33    0.20    0.32    0.31    0.27    0.24    0.00    0.97    0.15    0.23    0.22    0.20    0.18    0.00    0.36    0.05    0.09    0.09    0.08    0.06       0
 2013 302    37    1955   0.070    2149   0.077   11142       0   11142     489     978    1467    2695    5513       0      87      14      27      40       2       4    1290     204     409     613      21      43    9763     271     542     814    2671    5466    0.00    1.33    0.20    0.32    0.32    0.26    0.23    0.00    0.97    0.15    0.23    0.23    0.19    0.17    0.00    0.36    0.05    0.09    0.09    0.08    0.06       0
 2013 303    38    1955   0.070    2149   0.077   11141       0   11141     489     978    1467    2695    5513       0      87      14      27      40       2       4    1290     204     409     613      21      43    9763     271     542     814    2671    5466    0.00    1.34    0.21    0.33    0.32    0.26    0.22    0.00    0.97    0.15    0.24    0.23    0.18    0.17    0.00    0.36    0.05    0.09    0.09    0.08    0.06       0
 2013 304    39    1955   0.070    2149   0.077   11141       0   11141     489     978    1467    2694    5513       0      87      14      27      40       2       4    1290     204     409     613      21      43    9762     271     542     814    2671    5466    0.00    1.34    0.21    0.33    0.33    0.25    0.22    0.00    0.98    0.15    0.25    0.24    0.18    0.16    0.00    0.37    0.05    0.09    0.09    0.08    0.06       0
 2013 305    40    1955   0.070    2149   0.077   11141       0   11141     489     978    1467    2694    5513       0      87      14      27      40       2       4    1290     204     409     613      21      43    9762     271     542     814    2671    5466    0.00    1.36    0.21    0.34    0.34    0.25    0.21    0.00    0.99    0.16    0.26    0.25    0.17    0.16    0.00    0.37    0.06    0.09    0.09    0.08    0.06       0
 2013 306    41    1955   0.070    2149   0.077   11141       0   11141     489     978    1467    2694    5513       0      87      14      27      40       2       4    1290     204     409     613      21      43    9762     271     542     814    2671    5466    0.00    1.37    0.21    0.35    0.35    0.24    0.21    0.00    1.00    0.16    0.26    0.26    0.17    0.15    0.00    0.37    0.06    0.09    0.09    0.07    0.06       0
 2013 307    42    1955   0.070    2149   0.077   11140       0   11140     489     978    1467    2694    5513       0      86      14      27      40       2       4    1290     204     409     613      21      43    9762     271     542     814    2671    5466    0.00    1.39    0.22    0.36    0.37    0.24    0.21    0.00    1.02    0.16    0.27    0.27    0.16    0.15    0.00    0.37    0.06    0.09    0.09    0.07    0.06       0
 2013 308    43    1955   0.070    2149   0.077   11140       0   11140     489     978    1467    2694    5513       0      86      14      27      40       2       4    1290     204     409     613      21      43    9762     271     542     814    2671    5465    0.00    1.37    0.21    0.36    0.36    0.23    0.20    0.00    1.00    0.16    0.27    0.27    0.16    0.14    0.00    0.37    0.06    0.09    0.09    0.07    0.06       0
 2013 309    44    1954   0.070    2149   0.077   11140       0   11140     488     978    1467    2694    5513       0      86      14      27      40       2       4    1290     204     409     613      21      43    9762     271     542     814    2671    5465    0.00    1.39    0.21    0.37    0.38    0.23    0.20    0.00    1.02    0.16    0.28    0.29    0.15    0.14    0.00    0.37    0.06    0.09    0.09    0.07    0.06       0
 2013 310    45    1954   0.070    2149   0.077   11140       0   11140     488     978    1467    2694    5513       0      86      13      27      40       2       4    1290     204     409     613      21      43    9762     271     542     814    2671    5465    0.00    1.40    0.21    0.38    0.39    0.22    0.19    0.00    1.03    0.16    0.29    0.30    0.15    0.14    0.00    0.37    0.06    0.09    0.09    0.07    0.06       0
 2013 311    46    1954   0.070    2149   0.077   11139       0   11139     488     977    1467    2694    5512       0      86      13      27      40       2       4    1290     204     408     613      21      43    9762     271     542     814    2671    5465    0.00    1.38    0.21    0.37    0.39    0.22    0.19    0.00    1.01    0.15    0.28    0.30    0.14    0.13    0.00    0.37    0.06    0.09    0.09    0.07    0.06       0
 2013 312    47    1953   0.070    2149   0.077   11139       0   11139     488     977    1467    2694    5512       0      86      13      27      40       2       4    1290     204     408     613      21      43    9762     271     542     814    2671    5465    0.00    1.38    0.21    0.37    0.40    0.22    0.19    0.00    1.01    0.15    0.28    0.31    0.14    0.13    0.00    0.37    0.06    0.09    0.09    0.07    0.06       0
 2013 313    48    1953   0.070    2149   0.077   11138       0   11138     488     977    1467    2694    5512       0      85      13      27      40       2       4    1290     204     408     613      21      43    9762     271     542     814    2671    5465    0.00    1.38    0.20    0.37    0.41    0.21    0.18    0.00    1.01    0.15    0.28    0.32    0.14    0.13    0.00    0.37    0.06    0.09    0.09    0.07    0.06       0
 2013 314    49    1953   0.070    2149   0.077   11138       0   11138     488     977    1467    2694    5512       0      85      13      26      40       2       4    1290     204     408     613      21      43    9762     271     542     814    2671    5465    0.00    1.39    0.21    0.37    0.42    0.21    0.18    0.00    1.02    0.15    0.28    0.33    0.14    0.12    0.00    0.37    0.06    0.09    0.10    0.07    0.06       0
 2013 315    50    1953   0.070    2149   0.077   11138       0   11138     488     977    1467    2694    5512       0      85      13      26      40       2       4    1289     204     408     613      21      43    9762     271     542     814    2671    5465    0.00    1.41    0.21    0.38    0.44    0.21    0.18    0.00    1.03    0.15    0.28    0.34    0.13    0.12    0.00    0.37    0.06    0.09    0.10    0.07    0.06       0
 2013 316    51    1953   0.070    2149   0.077   11137       0   11137     488     977    1467    2694    5512       0      85      13      26      40       2       4    1289     204     408     613      21      43    9762     271     542     814    2671    5465    0.00    1.42    0.21    0.38    0.45    0.20    0.17    0.00    1.05    0.15    0.29    0.35    0.13    0.12    0.00    0.38    0.06    0.09    0.10    0.07    0.06       0
 2013 317    52    1952   0.070    2149   0.077   11137       0   11137     488     977    1467    2694    5512       0      85      13      26      40       2       4    1289     204     408     613      21      43    9762     271     542     814    2671    5465    0.00    1.44    0.22    0.39    0.46    0.20    0.17    0.00    1.06    0.16    0.30    0.36    0.13    0.11    0.00    0.38    0.06    0.09    0.10    0.07    0.06       0
 2013 318    53    1952   0.070    2149   0.077   11137       0   11137     488     977    1467    2694    5512       0      85      13      26      40       2       4    1289     204     408     613      21      43    9762     271     542     814    2671    5465    0.00    1.46    0.22    0.40    0.47    0.20    0.17    0.00    1.08    0.16    0.31    0.38    0.13    0.11    0.00    0.38    0.06    0.09    0.10    0.07    0.06       0
 2013 319    54    1952   0.070    2149   0.077   11137       0   11137     488     977    1467    2694    5512       0      85      13      26      40       2       4    1289     204     408     613      21      43    9762     271     542     814    2671    5465    0.00    1.48    0.22    0.41    0.49    0.20    0.17    0.00    1.10    0.16    0.32    0.39    0.12    0.11    0.00    0.38    0.06    0.09    0.10    0.07    0.06       0
 2013 320    55    1952   0.070    2149   0.077   11137       0   11137     488     977    1467    2694    5512       0      84      13      26      40       2       4    1289     204     408     613      21      43    9762     271     542     814    2671    5465    0.00    1.50    0.22    0.42    0.50    0.19    0.16    0.00    1.12    0.16    0.33    0.40    0.12    0.11    0.00    0.38    0.06    0.09    0.10    0.07    0.06       0
 2013 321    56    1952   0.070    2149   0.077   11136       0   11136     487     976    1467    2694    5512       0      84      13      26      40       2       4    1289     204     408     613      21      43    9762     271     542     814    2671    5465    0.00    1.50    0.22    0.41    0.51    0.19    0.16    0.00    1.11    0.16    0.32    0.41    0.12    0.10    0.00    0.38    0.06    0.09    0.10    0.07    0.06       0
 2013 322    57    1951   0.070    2148   0.077   11136       0   11136     487     976    1466    2694    5512       0      84      13      26      39       2       4    1289     204     408     613      21      43    9762     271     542     814    2671    5465    0.00    1.49    0.22    0.41    0.52    0.19    0.16    0.00    1.11    0.16    0.32    0.42    0.12    0.10    0.00    0.38    0.06    0.09    0.10    0.07    0.06       0
 2013 323    58    1951   0.070    2148   0.077   11135       0   11135     487     976    1466    2694    5512       0      83      13      26      39       2       4    1289     204     408     613      21      43    9761     271     542     814    2671    5465    0.00    1.49    0.21    0.41    0.52    0.19    0.16    0.00    1.11    0.16    0.31    0.42    0.11    0.10    0.00    0.38    0.06    0.10    0.10    0.07    0.06       0
 2013 324    59    1950   0.070    2148   0.077   11134       0   11134     487     976    1466    2694    5512       0      83      13      26      39       2       4    1288     204     408     613      21      43    9761     271     542     814    2671    5465    0.00    1.50    0.21    0.41    0.53    0.19    0.15    0.00    1.11    0.15    0.32    0.43    0.11    0.10    0.00    0.39    0.06    0.10    0.10    0.07    0.06       0
 2013 325    60    1950   0.070    2148   0.077   11134       0   11134     487     975    1466    2694    5512       0      83      13      25      39       2       4    1288     204     408     613      21      43    9761     271     542     814    2671    5465    0.00    1.50    0.21    0.42    0.54    0.18    0.15    0.00    1.12    0.15    0.32    0.43    0.11    0.10    0.00    0.39    0.06    0.10    0.10    0.07    0.06       0
 2013 326    61    1950   0.070    2148   0.077   11134       0   11134     487     975    1466    2694    5512       0      82      13      25      39       2       4    1288     204     408     613      21      43    9761     271     542     814    2671    5465    0.00    1.51    0.21    0.42    0.55    0.18    0.15    0.00    1.13    0.16    0.33    0.44    0.11    0.09    0.00    0.39    0.06    0.10    0.10    0.07    0.06       0
 2013 327    62    1950   0.070    2148   0.077   11133       0   11133     487     975    1466    2694    5512       0      82      12      25      39       2       4    1288     204     408     613      21      43    9761     271     542     814    2670    5465    0.00    1.53    0.21    0.43    0.55    0.18    0.15    0.00    1.14    0.15    0.33    0.45    0.11    0.09    0.00    0.39    0.06    0.10    0.10    0.07    0.06       0
 2013 328    63    1949   0.070    2148   0.077   11133       0   11133     487     975    1466    2694    5512       0      82      12      25      39       2       3    1288     203     408     612      21      43    9761     271     542     814    2670    5465    0.00    1.53    0.21    0.43    0.56    0.18    0.15    0.00    1.13    0.15    0.33    0.46    0.10    0.09    0.00    0.39    0.06    0.10    0.11    0.07    0.06       0
 2013 329    64    1949   0.070    2148   0.077   11132       0   11132     486     975    1465    2694    5512       0      82      12      25      39       2       3    1288     203     408     612      21      43    9761     271     542     814    2670    5465    0.00    1.53    0.21    0.42    0.57    0.18    0.14    0.00    1.13    0.15    0.32    0.47    0.10    0.09    0.00    0.39    0.06    0.10    0.11    0.07    0.06       0
 2013 330    65    1948   0.070    2148   0.077   11131       0   11131     486     974    1465    2694    5512       0      81      12      25      39       2       3    1288     203     407     612      21      43    9761     271     542     814    2670    5465    0.00    1.52    0.21    0.42    0.58    0.17    0.14    0.00    1.13    0.15    0.32    0.47    0.10    0.09    0.00    0.39    0.06    0.10    0.11    0.07    0.06       0
 2013 331    66    1948   0.070    2147   0.077   11130       0   11130     486     974    1465    2694    5511       0      81      12      25      38       2       3    1287     203     407     612      21      43    9761     271     542     814    2670    5465    0.00    1.52    0.20    0.42    0.58    0.17    0.14    0.00    1.12    0.15    0.32    0.48    0.10    0.09    0.00    0.39    0.06    0.10    0.11    0.07    0.06       0
 2013 332    67    1947   0.070    2147   0.077   11130       0   11130     486     974    1465    2694    5511       0      80      12      24      38       2       3    1287     203     407     612      21      43    9761     271     542     814    2670    5465    0.00    1.51    0.20    0.41    0.59    0.17    0.14    0.00    1.12    0.14    0.31    0.48    0.10    0.08    0.00    0.40    0.06    0.10    0.11    0.07    0.06       0
 2013 333    68    1947   0.070    2147   0.077   11129       0   11129     486     974    1465    2694    5511       0      80      12      24      38       2       3    1287     203     407     612      21      43    9761     271     542     814    2670    5465    0.00    1.51    0.20    0.41    0.59    0.17    0.14    0.00    1.12    0.14    0.31    0.48    0.10    0.08    0.00    0.40    0.06    0.10    0.11    0.07    0.06       0
 2013 334    69    1946   0.070    2147   0.077   11128       0   11128     486     973    1464    2694    5511       0      79      12      24      38       2       3    1287     203     407     612      21      43    9761     271     542     814    2670    5465    0.00    1.52    0.20    0.41    0.60    0.17    0.14    0.00    1.12    0.14    0.31    0.49    0.10    0.08    0.00    0.40    0.06    0.10    0.11    0.07    0.06       0
 2013 335    70    1946   0.069    2147   0.077   11128       0   11128     486     973    1464    2694    5511       0      79      12      24      38       2       3    1286     203     407     612      21      43    9761     271     542     814    2670    5465    0.00    1.52    0.20    0.41    0.60    0.17    0.14    0.00    1.12    0.14    0.31    0.49    0.09    0.08    0.00    0.40    0.06    0.10    0.11    0.07    0.06       0
 2013 336    71    1946   0.069    2147   0.077   11127       0   11127     485     973    1464    2694    5511       0      79      12      24      38       2       3    1286     203     407     612      21      43    9761     271     542     814    2670    5465    0.00    1.54    0.21    0.42    0.61    0.17    0.13    0.00    1.14    0.15    0.32    0.50    0.09    0.08    0.00    0.40    0.06    0.10    0.11    0.07    0.06       0
 2013 337    72    1945   0.069    2147   0.077   11127       0   11127     485     973    1464    2694    5511       0      78      12      24      38       2       3    1286     203     407     612      21      43    9761     271     542     814    2670    5465    0.00    1.54    0.21    0.42    0.62    0.16    0.13    0.00    1.14    0.15    0.32    0.51    0.09    0.08    0.00    0.40    0.06    0.10    0.11    0.07    0.06       0
 2013 338    73    1945   0.069    2146   0.077   11126       0   11126     485     972    1464    2694    5511       0      78      11      24      38       2       3    1286     203     407     612      21      43    9761     271     542     814    2670    5464    0.00    1.55    0.20    0.42    0.63    0.16    0.13    0.00    1.14    0.14    0.31    0.52    0.09    0.08    0.00    0.40    0.06    0.10    0.11    0.07    0.06       0
 2013 339    74    1944   0.069    2146   0.077   11126       0   11126     485     972    1464    2694    5511       0      78      11      23      38       2       3    1286     203     407     612      21      43    9761     271     542     814    2670    5464    0.00    1.56    0.20    0.42    0.64    0.16    0.13    0.00    1.15    0.14    0.32    0.53    0.09    0.08    0.00    0.41    0.06    0.10    0.11    0.07    0.06       0
 2013 340    75    1944   0.069    2146   0.077   11125       0   11125     485     972    1463    2694    5511       0      77      11      23      37       2       3    1285     203     407     612      21      43    9761     271     542     814    2670    5464    0.00    1.58    0.21    0.43    0.65    0.16    0.13    0.00    1.17    0.14    0.32    0.54    0.09    0.07    0.00    0.41    0.06    0.10    0.12    0.07    0.06       0
 2013 341    76    1944   0.069    2146   0.077   11125       0   11125     485     972    1463    2694    5511       0      77      11      23      37       2       3    1285     203     407     612      21      43    9761     271     542     814    2670    5464    0.00    1.60    0.21    0.43    0.67    0.16    0.13    0.00    1.19    0.15    0.33    0.55    0.09    0.07    0.00    0.41    0.06    0.10    0.12    0.07    0.06       0
 2013 342    77    1944   0.069    2146   0.077   11125       0   11125     485     972    1463    2694    5511       0      77      11      23      37       2       3    1285     203     407     612      21      43    9761     271     542     814    2670    5464    0.00    1.62    0.21    0.44    0.68    0.16    0.13    0.00    1.21    0.15    0.34    0.56    0.09    0.07    0.00    0.41    0.06    0.10    0.12    0.07    0.06       0
 2013 343    78    1944   0.069    2146   0.077   11124       0   11124     485     972    1463    2694    5511       0      77      11      23      37       2       3    1285     203     407     612      21      43    9761     271     542     814    2670    5464    0.00    1.61    0.21    0.44    0.68    0.16    0.13    0.00    1.20    0.15    0.34    0.56    0.08    0.07    0.00    0.41    0.06    0.10    0.12    0.07    0.06       0
 2013 344    79    1944   0.069    2146   0.077   11124       0   11124     485     972    1463    2694    5511       0      77      11      23      37       2       3    1285     203     407     612      21      43    9761     271     542     814    2670    5464    0.00    1.61    0.21    0.44    0.68    0.16    0.12    0.00    1.20    0.15    0.34    0.56    0.08    0.07    0.00    0.41    0.06    0.10    0.12    0.07    0.06       0
 2013 345    80    1943   0.069    2146   0.077   11124       0   11124     485     972    1463    2694    5511       0      77      11      23      37       2       3    1285     203     406     612      21      43    9760     271     542     814    2670    5464    0.00    1.57    0.20    0.42    0.67    0.15    0.12    0.00    1.16    0.14    0.32    0.55    0.08    0.07    0.00    0.41    0.06    0.10    0.12    0.07    0.06       0
 2013 346    81    1942   0.069    2146   0.077   11123       0   11123     484     971    1463    2694    5511       0      76      11      23      37       2       3    1285     203     406     611      21      43    9760     271     542     814    2670    5464    0.00    1.52    0.20    0.41    0.65    0.15    0.12    0.00    1.11    0.13    0.30    0.53    0.08    0.07    0.00    0.41    0.06    0.10    0.12    0.07    0.05       0
 2013 347    82    1942   0.069    2145   0.077   11122       0   11122     484     971    1462    2694    5511       0      76      11      23      37       2       3    1284     203     406     611      21      43    9760     271     542     814    2670    5464    0.00    1.47    0.19    0.39    0.63    0.15    0.12    0.00    1.07    0.13    0.28    0.51    0.08    0.06    0.00    0.41    0.06    0.10    0.12    0.07    0.05       0
 2013 348    83    1941   0.069    2145   0.077   11121       0   11121     484     970    1462    2693    5511       0      75      11      22      37       2       3    1284     202     406     611      21      43    9760     271     542     814    2670    5464    0.00    1.43    0.18    0.37    0.61    0.15    0.12    0.00    1.03    0.12    0.27    0.50    0.08    0.06    0.00    0.41    0.06    0.10    0.12    0.07    0.05       0
 2013 349    84    1940   0.069    2145   0.077   11120       0   11120     484     970    1462    2693    5511       0      75      11      22      36       2       3    1283     202     406     611      21      43    9760     271     542     814    2670    5464    0.00    1.39    0.17    0.36    0.60    0.15    0.12    0.00    0.98    0.11    0.25    0.48    0.08    0.06    0.00    0.41    0.06    0.10    0.12    0.07    0.05       0
 2013 350    85    1940   0.069    2145   0.077   11119       0   11119     484     970    1461    2693    5511       0      74      11      22      36       2       3    1283     202     406     611      21      43    9760     271     542     814    2670    5464    0.00    1.35    0.17    0.34    0.58    0.15    0.11    0.00    0.95    0.11    0.24    0.47    0.07    0.06    0.00    0.40    0.06    0.10    0.12    0.07    0.05       0
 2013 351    86    1939   0.069    2145   0.077   11118       0   11118     483     969    1461    2693    5511       0      74      11      22      36       2       3    1283     202     406     611      21      43    9760     271     542     814    2670    5464    0.00    1.32    0.16    0.33    0.57    0.14    0.11    0.00    0.92    0.10    0.23    0.45    0.07    0.06    0.00    0.40    0.06    0.10    0.12    0.07    0.05       0
 2013 352    87    1939   0.069    2144   0.077   11117       0   11117     483     969    1461    2693    5511       0      73      10      22      36       2       3    1282     202     405     611      21      43    9760     271     542     814    2670    5464    0.00    1.28    0.16    0.32    0.55    0.14    0.11    0.00    0.88    0.10    0.22    0.43    0.07    0.06    0.00    0.40    0.06    0.10    0.12    0.07    0.05       0
 2013 353    88    1938   0.069    2144   0.077   11116       0   11116     483     969    1460    2693    5510       0      73      10      21      35       2       3    1282     202     405     611      21      43    9760     271     542     814    2670    5464    0.00    1.24    0.15    0.31    0.53    0.14    0.11    0.00    0.84    0.09    0.21    0.41    0.07    0.06    0.00    0.40    0.06    0.10    0.11    0.07    0.05       0
 2013 354    89    1937   0.069    2144   0.077   11115       0   11115     483     968    1460    2693    5510       0      72      10      21      35       2       3    1282     202     405     610      21      43    9760     271     542     814    2670    5464    0.00    1.20    0.15    0.30    0.51    0.14    0.11    0.00    0.80    0.09    0.20    0.39    0.07    0.05    0.00    0.40    0.06    0.10    0.11    0.07    0.05       0
 2013 355    90    1937   0.069    2144   0.077   11114       0   11114     483     968    1459    2693    5510       0      72      10      21      35       2       3    1281     202     405     610      21      43    9760     271     542     814    2670    5464    0.00    1.17    0.14    0.29    0.49    0.14    0.11    0.00    0.77    0.08    0.19    0.38    0.07    0.05    0.00    0.40    0.06    0.10    0.11    0.07    0.05       0
 2013 356    91    1936   0.069    2143   0.077   11113       0   11113     483     968    1459    2693    5510       0      71      10      21      35       2       3    1281     202     405     610      21      43    9760     271     542     814    2670    5464    0.00    1.14    0.14    0.28    0.48    0.14    0.11    0.00    0.74    0.08    0.18    0.36    0.07    0.05    0.00    0.40    0.06    0.10    0.11    0.07    0.05       0
 2013 357    92    1936   0.069    2143   0.077   11113       0   11113     483     968    1459    2693    5510       0      71      10      21      35       2       3    1281     202     405     610      21      43    9760     271     542     814    2670    5464    0.00    1.12    0.14    0.28    0.47    0.14    0.11    0.00    0.72    0.08    0.18    0.36    0.06    0.05    0.00    0.40    0.06    0.10    0.11    0.07    0.05       0
 2013 358    93    1936   0.069    2143   0.077   11112       0   11112     483     968    1459    2693    5510       0      71      10      21      35       2       3    1281     202     405     610      21      43    9760     271     542     814    2670    5464    0.00    1.11    0.13    0.27    0.46    0.13    0.10    0.00    0.71    0.07    0.17    0.35    0.06    0.05    0.00    0.40    0.06    0.10    0.11    0.07    0.05       0
 2013 359    94    1936   0.069    2143   0.077   11112       0   11112     482     968    1459    2693    5510       0      71      10      21      35       2       3    1281     202     405     610      21      43    9760     271     542     814    2670    5464    0.00    1.10    0.13    0.27    0.46    0.13    0.10    0.00    0.70    0.07    0.17    0.34    0.06    0.05    0.00    0.40    0.06    0.10    0.11    0.07    0.05       0
 2013 360    95    1935   0.069    2143   0.077   11112       0   11112     482     967    1458    2693    5510       0      70      10      21      34       2       3    1280     202     405     610      21      43    9760     271     542     814    2670    5464    0.00    1.08    0.13    0.27    0.46    0.13    0.10    0.00    0.69    0.07    0.17    0.34    0.06    0.05    0.00    0.40    0.06    0.10    0.11    0.07    0.05       0
 2013 361    96    1935   0.069    2143   0.077   11111       0   11111     482     967    1458    2693    5510       0      70      10      21      34       2       3    1280     202     405     610      21      43    9760     271     542     814    2670    5464    0.00    1.07    0.13    0.27    0.45    0.13    0.10    0.00    0.68    0.07    0.17    0.34    0.06    0.05    0.00    0.40    0.06    0.10    0.11    0.07    0.05       0
 2013 362    97    1935   0.069    2143   0.077   11111       0   11111     482     967    1458    2693    5510       0      70      10      21      34       2       3    1280     202     405     610      21      43    9760     271     542     814    2670    5464    0.00    1.07    0.12    0.26    0.45    0.13    0.10    0.00    0.67    0.07    0.16    0.34    0.06    0.05    0.00    0.40    0.06    0.10    0.11    0.07    0.05       0
 2013 363    98    1935   0.069    2143   0.077   11111       0   11111     482     967    1458    2693    5510       0      70      10      21      34       2       3    1280     202     405     610      21      43    9760     271     542     814    2670    5464    0.00    1.06    0.12    0.26    0.45    0.13    0.10    0.00    0.67    0.06    0.16    0.34    0.06    0.05    0.00    0.40    0.06    0.10    0.11    0.07    0.05       0
 2013 364    99    1935   0.069    2143   0.077   11111       0   11111     482     967    1458    2693    5510       0      70      10      21      34       2       3    1280     202     405     610      21      43    9760     271     542     814    2670    5464    0.00    1.06    0.12    0.26    0.45    0.13    0.10    0.00    0.66    0.06    0.16    0.34    0.06    0.04    0.00    0.40    0.06    0.10    0.11    0.07    0.05       0
 2013 365   100    1935   0.069    2143   0.077   11111       0   11111     482     967    1458    2693    5510       0      70      10      21      34       2       3    1280     202     405     610      21      43    9760     271     542     814    2670    5464    0.00    1.05    0.12    0.26    0.45    0.12    0.10    0.00    0.66    0.06    0.16    0.34    0.05    0.04    0.00    0.40    0.06    0.10    0.11    0.07    0.05       0
 2014 001   101    1935   0.069    2143   0.077   11111       0   11111     482     967    1458    2693    5510       0      70      10      21      34       2       3    1280     202     405     610      21      43    9760     271     542     814    2670    5464    0.00    1.05    0.12    0.26    0.45    0.12    0.10    0.00    0.65    0.06    0.16    0.33    0.05    0.04    0.00    0.40    0.06    0.10    0.11    0.07    0.05       0
 2014 002   102    1935   0.069    2143   0.077   11110       0   11110     482     967    1458    2693    5510       0      70      10      21      34       2       3    1280     202     405     610      21      43    9760     271     542     814    2670    5464    0.00    1.05    0.12    0.26    0.45    0.12    0.10    0.00    0.65    0.06    0.16    0.33    0.05    0.04    0.00    0.39    0.06    0.10    0.11    0.07    0.05       0
 2014 003   103    1935   0.069    2143   0.077   11110       0   11110     482     967    1458    2693    5510       0      70      10      21      34       2       3    1280     202     405     610      21      43    9760     271     542     814    2670    5464    0.00    1.04    0.12    0.26    0.45    0.12    0.09    0.00    0.65    0.06    0.16    0.33    0.05    0.04    0.00    0.39    0.06    0.10    0.11    0.07    0.05       0
 2014 004   104    1935   0.069    2143   0.077   11110       0   11110     482     967    1458    2693    5510       0      70      10      21      34       2       3    1280     202     405     610      21      43    9759     271     542     814    2670    5464    0.00    1.04    0.12    0.26    0.45    0.12    0.09    0.00    0.64    0.06    0.16    0.33    0.05    0.04    0.00    0.39    0.06    0.10    0.11    0.07    0.05       0
 2014 005   105    1935   0.069    2143   0.077   11110       0   11110     482     967    1458    2693    5510       0      70      10      21      34       2       3    1280     202     405     610      21      43    9759     271     542     814    2670    5464    0.00    1.04    0.12    0.26    0.45    0.12    0.09    0.00    0.64    0.06    0.16    0.33    0.05    0.04    0.00    0.39    0.06    0.10    0.11    0.07    0.05       0
 2014 006   106    1935   0.069    2143   0.077   11110       0   11110     482     967    1458    2693    5510       0      70      10      21      34       2       3    1280     201     405     610      21      43    9759     271     542     814    2670    5464    0.00    1.03    0.12    0.26    0.45    0.12    0.09    0.00    0.64    0.06    0.16    0.33    0.05    0.04    0.00    0.39    0.06    0.10    0.11    0.07    0.05       0
 2014 007   107    1935   0.069    2143   0.077   11110       0   11110     482     967    1458    2693    5510       0      70      10      21      34       2       3    1280     201     405     610      21      43    9759     271     542     814    2670    5464    0.00    1.03    0.12    0.26    0.44    0.12    0.09    0.00    0.64    0.06    0.16    0.33    0.05    0.04    0.00    0.39    0.06    0.10    0.11    0.07    0.05       0
 2014 008   108    1934   0.069    2143   0.077   11110       0   11110     482     967    1458    2693    5510       0      70      10      21      34       2       3    1280     201     405     610      21      43    9759     271     542     814    2670    5464    0.00    1.03    0.12    0.26    0.44    0.12    0.09    0.00    0.63    0.06    0.16    0.33    0.05    0.04    0.00    0.39    0.06    0.10    0.11    0.07    0.05       0
 2014 009   109    1934   0.069    2143   0.077   11110       0   11110     482     967    1458    2693    5510       0      70      10      21      34       2       3    1280     201     405     610      21      43    9759     271     542     814    2670    5464    0.00    1.02    0.12    0.26    0.44    0.12    0.09    0.00    0.63    0.06    0.16    0.33    0.05    0.04    0.00    0.39    0.06    0.10    0.11    0.07    0.05       0
 2014 010   110    1934   0.069    2143   0.077   11110       0   11110     482     967    1458    2693    5510       0      70      10      21      34       2       3    1280     201     405     610      21      43    9759     271     542     814    2670    5463    0.00    1.02    0.12    0.26    0.44    0.11    0.09    0.00    0.63    0.06    0.16    0.33    0.05    0.04    0.00    0.39    0.06    0.10    0.11    0.07    0.05       0
 2014 011   111    1934   0.069    2143   0.077   11110       0   11110     482     967    1458    2693    5510       0      70      10      21      34       2       3    1280     201     405     610      21      43    9759     271     542     814    2670    5463    0.00    1.02    0.12    0.26    0.44    0.11    0.09    0.00    0.62    0.06    0.16    0.33    0.04    0.04    0.00    0.39    0.06    0.10    0.11    0.07    0.05       0
 2014 012   112    1934   0.069    2143   0.077   11109       0   11109     482     967    1458    2693    5510       0      70      10      21      34       2       3    1280     201     405     610      21      43    9759     271     542     814    2670    5463    0.00    1.02    0.12    0.26    0.44    0.11    0.09    0.00    0.62    0.06    0.16    0.33    0.04    0.03    0.00    0.39    0.06    0.10    0.11    0.07    0.05       0
 2014 013   113    1934   0.069    2143   0.077   11109       0   11109     482     967    1458    2693    5510       0      69      10      21      34       2       3    1280     201     405     610      21      43    9759     271     542     814    2670    5463    0.00    1.01    0.12    0.26    0.44    0.11    0.09    0.00    0.62    0.06    0.16    0.33    0.04    0.03    0.00    0.39    0.06    0.10    0.11    0.07    0.05       0
 2014 014   114    1934   0.069    2143   0.077   11109       0   11109     482     967    1458    2693    5510       0      69      10      21      34       2       3    1280     201     405     610      21      43    9759     271     542     814    2670    5463    0.00    1.01    0.12    0.26    0.44    0.11    0.09    0.00    0.62    0.06    0.16    0.33    0.04    0.03    0.00    0.39    0.06    0.10    0.11    0.07    0.05       0
 2014 015   115    1934   0.069    2142   0.077   11109       0   11109     482     967    1458    2693    5509       0      69      10      21      34       2       3    1280     201     405     610      21      43    9759     271     542     814    2670    5463    0.00    1.01    0.12    0.26    0.44    0.11    0.09    0.00    0.62    0.06    0.16    0.33    0.04    0.03    0.00    0.39    0.06    0.10    0.11    0.07    0.05       0
 2014 016   116    1934   0.069    2142   0.077   11109       0   11109     482     967    1458    2693    5509       0      69      10      20      34       2       3    1279     201     404     610      21      43    9759     271     542     814    2670    5463    0.00    0.99    0.11    0.25    0.44    0.11    0.08    0.00    0.60    0.05    0.15    0.33    0.04    0.03    0.00    0.39    0.06    0.10    0.11    0.07    0.05       0
 2014 017   117    1933   0.069    2142   0.077   11108       0   11108     481     966    1458    2693    5509       0      69       9      20      34       2       3    1279     201     404     610      21      43    9759     271     542     814    2670    5463    0.00    0.98    0.11    0.24    0.44    0.11    0.08    0.00    0.59    0.05    0.14    0.32    0.04    0.03    0.00    0.39    0.06    0.10    0.11    0.07    0.05       0
 2014 018   118    1933   0.069    2142   0.077   11108       0   11108     481     966    1458    2693    5509       0      69       9      20      34       2       3    1279     201     404     610      21      43    9759     271     542     814    2670    5463    0.00    0.96    0.11    0.23    0.43    0.11    0.08    0.00    0.57    0.05    0.13    0.32    0.04    0.03    0.00    0.39    0.06    0.10    0.11    0.07    0.05       0
 2014 019   119    1933   0.069    2142   0.077   11107       0   11107     481     966    1458    2693    5509       0      68       9      20      34       2       3    1279     201     404     610      21      43    9759     271     542     814    2670    5463    0.00    0.95    0.10    0.23    0.43    0.11    0.08    0.00    0.56    0.05    0.13    0.32    0.04    0.03    0.00    0.39    0.06    0.10    0.11    0.07    0.05       0
 2014 020   120    1932   0.069    2142   0.077   11107       0   11107     481     966    1458    2693    5509       0      68       9      20      34       2       3    1279     201     404     610      21      43    9759     271     542     814    2670    5463    0.00    0.94    0.10    0.22    0.43    0.11    0.08    0.00    0.55    0.05    0.12    0.31    0.04    0.03    0.00    0.39    0.06    0.10    0.11    0.07    0.05       0
 2014 021   121    1932   0.069    2142   0.077   11106       0   11106     481     966    1458    2693    5509       0      68       9      20      34       2       3    1279     201     404     610      21      43    9759     271     542     814    2670    5463    0.00    0.94    0.10    0.22    0.42    0.11    0.08    0.00    0.55    0.04    0.12    0.31    0.04    0.03    0.00    0.39    0.06    0.10    0.11    0.07    0.05       0
 2014 022   122    1932   0.069    2142   0.077   11106       0   11106     481     966    1458    2693    5509       0      68       9      20      34       2       3    1278     201     404     610      21      43    9759     271     542     814    2670    5463    0.00    0.93    0.10    0.22    0.42    0.11    0.08    0.00    0.54    0.04    0.12    0.31    0.04    0.03    0.00    0.39    0.06    0.10    0.11    0.07    0.05       0
 2014 023   123    1932   0.069    2142   0.077   11106       0   11106     481     966    1458    2693    5509       0      68       9      20      34       2       3    1278     201     404     610      21      43    9759     271     542     814    2670    5463    0.00    0.93    0.10    0.22    0.42    0.11    0.08    0.00    0.54    0.04    0.12    0.31    0.04    0.03    0.00    0.39    0.06    0.10    0.11    0.07    0.05       0
 2014 024   124    1932   0.069    2142   0.077   11106       0   11106     481     966    1458    2693    5509       0      68       9      20      34       2       3    1278     201     404     610      21      43    9759     271     542     814    2670    5463    0.00    0.92    0.10    0.22    0.42    0.10    0.08    0.00    0.53    0.04    0.12    0.31    0.04    0.03    0.00    0.39    0.06    0.10    0.11    0.07    0.05       0
 2014 025   125    1932   0.069    2142   0.077   11106       0   11106     481     966    1457    2693    5509       0      68       9      20      34       2       3    1278     201     404     610      21      43    9759     271     542     814    2670    5463    0.00    0.92    0.10    0.22    0.42    0.10    0.08    0.00    0.53    0.04    0.12    0.31    0.04    0.03    0.00    0.39    0.06    0.10    0.11    0.07    0.05       0
 2014 026   126    1932   0.069    2142   0.077   11106       0   11106     481     966    1457    2693    5509       0      68       9      20      34       2       3    1278     201     404     610      21      43    9759     271     542     814    2670    5463    0.00    0.92    0.10    0.22    0.42    0.10    0.08    0.00    0.53    0.04    0.12    0.31    0.03    0.03    0.00    0.39    0.06    0.10    0.11    0.07    0.05       0
 2014 027   127    1932   0.069    2142   0.077   11106       0   11106     481     966    1457    2693    5509       0      68       9      20      34       2       3    1278     201     404     610      21      43    9759     271     542     814    2670    5463    0.00    0.92    0.10    0.22    0.42    0.10    0.08    0.00    0.53    0.04    0.12    0.31    0.03    0.03    0.00    0.39    0.06    0.10    0.11    0.07    0.05       0
 2014 028   128    1932   0.069    2142   0.077   11106       0   11106     481     966    1457    2693    5509       0      68       9      20      34       2       3    1278     201     404     609      21      43    9759     271     542     814    2670    5463    0.00    0.91    0.10    0.22    0.42    0.10    0.08    0.00    0.53    0.04    0.12    0.31    0.03    0.03    0.00    0.39    0.06    0.10    0.11    0.07    0.05       0
 2014 029   129    1932   0.069    2142   0.077   11105       0   11105     481     966    1457    2693    5509       0      68       9      20      34       2       3    1278     201     404     609      21      43    9759     271     542     814    2670    5463    0.00    0.91    0.10    0.22    0.42    0.10    0.08    0.00    0.52    0.04    0.12    0.30    0.03    0.03    0.00    0.39    0.06    0.10    0.11    0.07    0.05       0
 2014 030   130    1931   0.069    2142   0.076   11105       0   11105     481     966    1457    2693    5509       0      68       9      20      34       2       3    1278     201     404     609      21      43    9759     271     542     814    2670    5463    0.00    0.91    0.09    0.22    0.42    0.10    0.08    0.00    0.52    0.04    0.12    0.30    0.03    0.03    0.00    0.39    0.06    0.10    0.11    0.07    0.05       0
 2014 031   131    1931   0.069    2142   0.076   11105       0   11105     481     966    1457    2693    5509       0      67       9      20      34       2       3    1278     201     404     609      21      43    9759     271     542     814    2670    5463    0.00    0.90    0.09    0.22    0.42    0.10    0.08    0.00    0.52    0.04    0.12    0.30    0.03    0.03    0.00    0.39    0.06    0.10    0.11    0.07    0.05       0
 2014 032   132    1931   0.069    2142   0.076   11105       0   11105     480     966    1457    2693    5509       0      67       9      20      34       2       3    1278     201     404     609      21      43    9759     271     542     814    2670    5463    0.00    0.90    0.09    0.21    0.42    0.10    0.08    0.00    0.51    0.04    0.12    0.30    0.03    0.02    0.00    0.39    0.06    0.10    0.11    0.07    0.05       0
 2014 033   133    1931   0.069    2142   0.076   11105       0   11105     480     965    1457    2693    5509       0      67       9      20      34       2       3    1278     201     404     609      21      43    9759     271     542     814    2670    5463    0.00    0.90    0.09    0.21    0.41    0.10    0.08    0.00    0.51    0.04    0.12    0.30    0.03    0.02    0.00    0.39    0.06    0.10    0.11    0.07    0.05       0
 2014 034   134    1931   0.069    2142   0.076   11105       0   11105     480     965    1457    2693    5509       0      67       9      20      34       2       3    1278     201     404     609      21      43    9758     271     542     814    2670    5463    0.00    0.90    0.09    0.21    0.41    0.10    0.08    0.00    0.51    0.04    0.12    0.30    0.03    0.02    0.00    0.39    0.06    0.10    0.11    0.07    0.05       0
 2014 035   135    1931   0.069    2142   0.076   11105       0   11105     480     965    1457    2693    5509       0      67       9      20      34       2       3    1278     201     404     609      21      43    9758     271     542     814    2670    5463    0.00    0.89    0.09    0.21    0.41    0.10    0.08    0.00    0.51    0.04    0.12    0.30    0.03    0.02    0.00    0.39    0.06    0.10    0.11    0.07    0.05       0
 2014 036   136    1931   0.069    2142   0.076   11104       0   11104     480     965    1457    2693    5509       0      67       9      20      34       2       3    1278     201     404     609      21      43    9758     271     542     814    2670    5463    0.00    0.89    0.09    0.21    0.41    0.10    0.07    0.00    0.50    0.03    0.12    0.30    0.03    0.02    0.00    0.39    0.06    0.10    0.11    0.07    0.05       0
 2014 037   137    1931   0.069    2142   0.076   11104       0   11104     480     965    1457    2693    5509       0      67       9      20      34       2       3    1278     201     404     609      21      43    9758     271     542     814    2670    5463    0.00    0.89    0.09    0.21    0.41    0.10    0.07    0.00    0.50    0.03    0.12    0.30    0.03    0.02    0.00    0.39    0.06    0.10    0.11    0.07    0.05       0
 2014 038   138    1931   0.069    2142   0.076   11104       0   11104     480     965    1457    2693    5509       0      67       9      20      34       2       3    1278     201     404     609      21      43    9758     271     542     814    2670    5463    0.00    0.88    0.09    0.21    0.41    0.10    0.07    0.00    0.50    0.03    0.11    0.30    0.03    0.02    0.00    0.38    0.06    0.10    0.11    0.07    0.05       0
 2014 039   139    1931   0.069    2142   0.076   11104       0   11104     480     965    1457    2693    5509       0      67       9      20      34       2       3    1278     201     404     609      21      43    9758     271     542     814    2670    5463    0.00    0.88    0.09    0.21    0.41    0.10    0.07    0.00    0.49    0.03    0.11    0.30    0.03    0.02    0.00    0.38    0.06    0.10    0.11    0.07    0.05       0
 2014 040   140    1931   0.069    2142   0.076   11104       0   11104     480     965    1457    2693    5509       0      67       9      20      34       2       3    1278     201     404     609      21      43    9758     271     542     814    2670    5463    0.00    0.88    0.09    0.21    0.41    0.10    0.07    0.00    0.49    0.03    0.11    0.30    0.03    0.02    0.00    0.38    0.06    0.10    0.11    0.07    0.05       0
 2014 041   141    1930   0.069    2142   0.076   11103       0   11103     480     965    1457    2693    5509       0      66       9      19      34       2       3    1277     201     404     609      21      43    9758     271     542     814    2670    5463    0.00    0.85    0.08    0.20    0.40    0.10    0.07    0.00    0.47    0.03    0.11    0.28    0.03    0.02    0.00    0.38    0.06    0.10    0.11    0.07    0.05       0
 2014 042   142    1930   0.069    2141   0.076   11102       0   11102     480     965    1456    2692    5509       0      66       9      19      33       2       3    1277     200     404     609      21      43    9758     271     542     814    2670    5463    0.00    0.83    0.08    0.20    0.38    0.09    0.07    0.00    0.45    0.03    0.10    0.27    0.03    0.02    0.00    0.38    0.06    0.10    0.11    0.07    0.05       0
 2014 043   143    1929   0.069    2141   0.076   11101       0   11101     480     964    1456    2692    5509       0      66       9      19      33       2       3    1276     200     403     609      21      43    9758     271     542     814    2670    5463    0.00    0.81    0.08    0.19    0.37    0.09    0.07    0.00    0.43    0.03    0.10    0.26    0.03    0.02    0.00    0.38    0.06    0.10    0.11    0.07    0.05       0
 2014 044   144    1928   0.069    2141   0.076   11100       0   11100     479     964    1456    2692    5509       0      65       8      19      33       2       3    1276     200     403     609      21      43    9758     271     542     814    2670    5463    0.00    0.79    0.08    0.19    0.36    0.09    0.07    0.00    0.41    0.02    0.09    0.25    0.02    0.02    0.00    0.38    0.05    0.10    0.11    0.07    0.05       0
 2014 045   145    1928   0.069    2140   0.076   11099       0   11099     479     964    1455    2692    5508       0      65       8      19      33       2       3    1276     200     403     609      21      43    9758     271     542     814    2669    5463    0.00    0.77    0.08    0.18    0.34    0.09    0.07    0.00    0.39    0.02    0.09    0.23    0.02    0.02    0.00    0.38    0.05    0.10    0.11    0.07    0.05       0
 2014 046   146    1927   0.069    2140   0.076   11098       0   11098     479     964    1455    2692    5508       0      64       8      19      32       2       3    1275     200     403     608      21      43    9758     271     542     814    2669    5463    0.00    0.75    0.08    0.18    0.33    0.09    0.07    0.00    0.37    0.02    0.08    0.22    0.02    0.02    0.00    0.38    0.05    0.10    0.11    0.07    0.05       0
 2014 047   147    1927   0.069    2140   0.076   11097       0   11097     479     963    1454    2692    5508       0      64       8      19      32       2       3    1275     200     403     608      21      43    9758     271     542     814    2669    5462    0.00    0.72    0.08    0.18    0.32    0.09    0.07    0.00    0.35    0.02    0.08    0.21    0.02    0.02    0.00    0.38    0.05    0.10    0.11    0.07    0.05       0
