*SIMULATION OVERVIEW FILE

*DSSAT Cropping System Model Ver. 4.7.2.000 -release      OCT 15, 2021; 17:59:33
                                                                                
*RUN   1        :             CSM335_date_1 MZCER047 ITSA1301    1              
 MODEL          : MZCER047 - Maize                                              
 EXPERIMENT     : ITSA1301 SG CALIBRATION SETUP OF SORGHUM SOWING DATES         
 DATA PATH      :                                                               
 TREATMENT  1   :             CSM335_date_1 MZCER047                            
                                                                                
                                                                                
 CROP           : Maize            CULTIVAR : APPOLO(BEN)      ECOTYPE :IB0003  
 STARTING DATE  : JUN 24 2015                                                   
 PLANTING DATE  : JUN 25 2015        PLANTS/m2 :  6.2     ROW SPACING :  75.cm  
 HARVEST DATE   : NOV 17 2015                                                   
 WEATHER        : BEOU   2015                                                   
 SOIL           : XXBEOU0101     TEXTURE : SL    -                              
 SOIL INITIAL C : DEPTH: 60cm EXTR. H2O:122.4mm  NO3: 47.0kg/ha  NH4:  5.0kg/ha 
 WATER BALANCE  : RAINFED                                                       
 IRRIGATION     : NOT IRRIGATED                                                 
 NITROGEN BAL.  : SOIL-N & N-UPTAKE SIMULATION; NO N-FIXATION                   
 N-FERTILIZER   :        0 kg/ha IN     0 APPLICATIONS                          
 RESIDUE/MANURE : INITIAL :     0 kg/ha ;       0 kg/ha IN     0 APPLICATIONS   
 ENVIRONM. OPT. : DAYL=    0.00  SRAD=    0.00  TMAX=    0.00  TMIN=    0.00    
                  RAIN=    0.00  CO2 =    0.00  DEW =    0.00  WIND=    0.00    
 SIMULATION OPT : WATER   :Y  NITROGEN:Y  N-FIX:N  PHOSPH :N  PESTS  :N         
                  PHOTO   :R  ET      :R  INFIL:S  HYDROL :R  SOM    :P         
                  CO2 401ppm  NSWIT   :1  EVAP :S  SOIL   :2  STEMP  :D         
 MANAGEMENT OPT : PLANTING:R  IRRIG   :N  FERT :R  RESIDUE:N  HARVEST:R         
                  WEATHER :M  TILLAGE :N                                        
                                                                                
*SUMMARY OF SOIL AND GENETIC INPUT PARAMETERS                                   
                                                                                
   SOIL LOWER UPPER   SAT  EXTR  INIT   ROOT   BULK     pH    NO3    NH4    ORG 
  DEPTH LIMIT LIMIT    SW    SW    SW   DIST   DENS                          C  
   cm   cm3/cm3    cm3/cm3    cm3/cm3         g/cm3         ugN/g  ugN/g     %  
------------------------------------------------------------------------------- 
  0-  5 0.076 0.280 0.445 0.204 0.130   1.00   1.40   5.00   5.60   0.60   0.90 
  5- 15 0.076 0.280 0.445 0.204 0.130   1.00   1.40   5.00   5.60   0.60   0.90 
 15- 30 0.076 0.280 0.445 0.204 0.130   1.00   1.40   5.00   5.60   0.60   0.90 
 30- 45 0.076 0.280 0.445 0.204 0.130   1.00   1.40   5.00   5.60   0.60 -99.00 
 45- 60 0.076 0.280 0.445 0.204 0.130   1.00   1.40   5.00   5.60   0.60 -99.00 
                                                                                
TOT- 60   4.6  16.8  26.7  12.2   7.8  <--cm   -  kg/ha-->   47.0    5.0  37800 
SOIL ALBEDO    : 0.30      EVAPORATION LIMIT : 6.00         MIN. FACTOR  : 1.00 
RUNOFF CURVE # :30.00      DRAINAGE RATE     : 0.60         FERT. FACTOR : 1.00 
                                                                                
 Maize      CULTIVAR :IM0005-APPOLO(BEN)        ECOTYPE :IB0003                 
 P1     : 240.00  P2     : 0.3000  P5     : 520.00                              
 G2     : 400.00  G3     : 12.000  PHINT  : 44.900                              


*SIMULATED CROP AND SOIL STATUS AT MAIN DEVELOPMENT STAGES

 RUN NO.     1                 CSM335_date_

        CROP GROWTH     BIOMASS         LEAF   CROP N     STRESS      STRESS                                           
   DATE  AGE STAGE        kg/ha    LAI   NUM  kg/ha  %   H2O  Nitr Phos1 Phos2  RSTG                                   
 ------  --- ----------   -----  -----  ----  ---  ---  ----  ----  ----  ----  ----                                   
 24 JUN    0 Start Sim        0   0.00   0.0    0  0.0  0.00  0.00  0.00  0.00     7
 25 JUN    0 Sowing           0   0.00   0.0    0  0.0  0.00  0.00  0.00  0.00     8
 26 JUN    1 Germinate        0   0.00   0.0    0  0.0  0.00  0.00  0.00  0.00     9
 29 JUN    4 Emergence       25   0.00   2.2    1  4.4  0.00  0.01  0.00  0.00     1
 11 JUL   16 End Juveni     154   0.32   8.4    5  3.2  0.00  0.01  0.00  0.00     2
 16 JUL   21 Floral Ini     320   0.58  10.6   12  3.6  0.00  0.00  0.00  0.00     3
 18 AUG   54 75% Silkin    3641   2.38  21.9   77  2.1  0.00  0.00  0.00  0.00     4
 27 AUG   63 Beg Gr Fil    4333   2.20  21.9   77  1.8  0.00  0.00  0.00  0.00     5
 13 SEP   80 End Gr Fil    5738   1.08  21.9   77  1.3  0.00  0.00  0.00  0.00     6
 15 SEP   82 Maturity      5738   1.08  21.9   77  1.3  0.00  0.00  0.00  0.00    10
 17 NOV  145 Harvest       5738   1.08  21.9   77  1.3  0.00  0.00  0.00  0.00    10


*MAIN GROWTH AND DEVELOPMENT VARIABLES

@     VARIABLE                                         SIMULATED     MEASURED
      --------                                         ---------     --------
      Anthesis day (dap)                                      54          -99
      Physiological maturity day (dap)                        82          -99
      Yield at harvest maturity (kg [dm]/ha)                1496          -99
      Number at maturity (no/m2)                             753          -99
      Unit wt at maturity (g [dm]/unit)                   0.1986          -99
      Number at maturity (no/unit)                         121.5          -99
      Tops weight at maturity (kg [dm]/ha)                  5738          -99
      By-product produced (stalk) at maturity (kg[dm]/ha    4284          -99
      Leaf area index, maximum                              2.50          -99
      Harvest index at maturity                            0.261          -99
      Grain N at maturity (kg/ha)                             26          -99
      Tops N at maturity (kg/ha)                              77          -99
      Stem N at maturity (kg/ha)                              51          -99
      Grain N at maturity (%)                                1.7          -99
      Tops weight at anthesis (kg [dm]/ha)                  3546          -99
      Tops N at anthesis (kg/ha)                              76          -99
      Leaf number per stem at maturity                     21.93          -99
      Emergence day (dap)                                      4          -99


*ENVIRONMENTAL AND STRESS FACTORS

 |-----Development Phase------|--------------------------------------Environment--------------------------------------|-----------------Stress-----------------|
                              |---------------Average--------------|-----Cumulative-----|--------Count of days--------|          (0=Min, 1=Max Stress)         |
                         Time  Temp  Temp  Temp Solar Photop                Evapo    Pot TMIN TMIN TMAX TMAX TMAX RAIN|----Water----|---Nitrogen--|-Phosphorus-|
                         Span   Max   Min  Mean   Rad  [day]    CO2   Rain  Trans     ET   <    <    >    >    >    >   Photo         Photo         Photo
                         days    øC    øC    øC MJ/m2     hr    ppm     mm     mm     mm  0øC  2øC 30øC 32øC 34øC  0mm  synth Growth  synth Growth  synth Growth
----------------------------------------------------------------------------------------------------------------------------------------------------------------
 Emergence-End Juvenile    12  32.9  23.8  28.3  20.5  12.62  400.7   82.7   45.9   65.3    0    0   11   10    2    7  0.000  0.000  0.003  0.009  0.000  0.000
 End Juvenil-Floral Init    5  31.3  23.0  27.1  19.4  12.59  400.8   34.8   21.8   25.0    0    0    3    2    0    1  0.000  0.006  0.001  0.003  0.000  0.000
 Floral Init-End Lf Grow   33  30.4  23.2  26.8  17.7  12.47  401.0  369.5  127.9  143.5    0    0   22    5    0   17  0.000  0.003  0.000  0.000  0.000  0.000
 End Lf Grth-Beg Grn Fil    9  29.8  22.7  26.2  14.9  12.30  401.2  119.5   32.4   32.7    0    0    3    1    0    5  0.000  0.000  0.000  0.000  0.000  0.000
 Grain Filling Phase       17  30.7  22.6  26.6  18.6  12.17  401.2  181.9   77.6   78.1    0    0   11    3    0   14  0.000  0.000  0.000  0.000  0.000  0.000
   
 Planting to Harvest      145  32.3  22.6  27.5  19.5  12.13  401.3  957.6  589.0  716.9    0    0  118   78   35   72  0.000  0.001  0.000  0.001  0.000  0.000
----------------------------------------------------------------------------------------------------------------------------------------------------------------


*Resource Productivity
 Growing season length: 145 days 

 Precipitation during growing season       957.6 mm[rain]
   Dry Matter Productivity                  0.60 kg[DM]/m3[rain]          =    6.0 kg[DM]/ha per mm[rain]
   Yield Productivity                       0.16 kg[grain yield]/m3[rain] =    1.6 kg[yield]/ha per mm[rain]

 Evapotranspiration during growing season  589.0 mm[ET]
   Dry Matter Productivity                  0.97 kg[DM]/m3[ET]            =    9.7 kg[DM]/ha per mm[ET]
   Yield Productivity                       0.25 kg[grain yield]/m3[ET]   =    2.5 kg[yield]/ha per mm[ET]

 Transpiration during growing season       362.9 mm[EP]
   Dry Matter Productivity                  1.58 kg[DM]/m3[EP]            =   15.8 kg[DM]/ha per mm[EP]
   Yield Productivity                       0.41 kg[grain yield]/m3[EP]   =    4.1 kg[yield]/ha per mm[EP]

 N uptake during growing season               78 kg[N uptake]/ha
   Dry Matter Productivity                  73.6 kg[DM]/kg[N uptake]
   Yield Productivity                       19.2 kg[yield]/kg[N uptake]

--------------------------------------------------------------------------------------------------------------

                     Maize YIELD :     1496 kg/ha    [Dry weight] 

**************************************************************************************************************
