*GROWTH ASPECTS OUTPUT FILE

*DSSAT Cropping System Model Ver. 4.7.2.000 -release      OCT 15, 2021; 17:59:33
                                                                                
*RUN   1        :             CSM335_date_1 MZCER047 ITSA1301    1              
 MODEL          : MZCER047 - Maize                                              
 EXPERIMENT     : ITSA1301 SG CALIBRATION SETUP OF SORGHUM SOWING DATES         
 DATA PATH      :                                                               
 TREATMENT  1   :             CSM335_date_1 MZCER047                            
  
!                                                                                                                                                                                                                                      Root Dens. (cm/cm3) by soil depth (cm):
!                                                                                                                                                                                                                                      0-5    5-15   15-30   30-45   45-60
@YEAR DOY   DAS   DAP   L#SD   GSTD   LAID   LWAD   SWAD   GWAD   RWAD   VWAD   CWAD   G#AD   GWGD   HIAD   PWAD   P#AD   WSPD   WSGD   NSTD   EWSD  PST1A  PST2A   KSTD   LN%D   SH%D   HIPD   PWDD   PWTD     SLAD   CHTD   CWID   RDPD    RL1D    RL2D    RL3D    RL4D    RL5D   CDAD   LDAD   SDAD   SNW0C   SNW1C  DTTD
 2015 176     2     0    0.0      0   0.00      0      0      0      0      0      0      0    0.0  0.000      0      0  0.000  0.000  0.000  0.000  0.000  0.000  0.000   0.00   0.00   0.00      0      0      0.0   0.00   0.00   0.03    0.00    0.00    0.00    0.00    0.00      0      0      0       0       0 22.78
 2015 177     3     1    0.0      0   0.00      0      0      0      0      0      0      0    0.0  0.000      0      0  0.000  0.000  0.000  0.000  0.000  0.000  0.000   0.00   0.00   0.00      0      0      0.0   0.00   0.00   0.06    0.00    0.00    0.00    0.00    0.00      0      0      0       0       0 22.32
 2015 178     4     2    0.0      0   0.00      0      0      0      0      0      0      0    0.0  0.000      0      0  0.000  0.000  0.000  0.000  0.000  0.000  0.000   0.00   0.00   0.00      0      0      0.0   0.00   0.00   0.10    0.00    0.00    0.00    0.00    0.00      0      0      0       0       0 22.69
 2015 179     5     3    0.0      0   0.00      0      0      0      0      0      0      0    0.0  0.000      0      0  0.000  0.000  0.000  0.000  0.000  0.000  0.000   0.00   0.00   0.00      0      0      0.0   0.00   0.00   0.13    0.00    0.00    0.00    0.00    0.00      0      0      0       0       0 21.64
 2015 180     6     4    2.0      1   0.00     12     12      0     12     25     25      0    0.0  0.000      0      0  0.000  0.000  0.012  0.000  0.000  0.000  0.000   4.40   0.00   0.00      0      0     36.1   0.00   0.00   0.15    0.25    0.10    0.00    0.00    0.00      0      0      0       0       0 21.93
 2015 181     7     5    2.0      1   0.01     12     12      0     13     25     25      0    0.0  0.000      0      0  0.000  0.000  0.011  0.000  0.000  0.000  0.000   4.40   0.00   0.00      0      0     75.6   0.01   0.00   0.17    0.25    0.10    0.00    0.00    0.00      0      0      0       0       0 22.76
 2015 182     8     6    3.0      1   0.02     12     12      0     13     25     25      0    0.0  0.000      0      0  0.000  0.000  0.003  0.000  0.000  0.000  0.000   4.40   0.00   0.00      0      0    121.5   0.01   0.00   0.19    0.25    0.11    0.00    0.00    0.00      0      0      0       0       0 22.96
 2015 183     9     7    4.0      1   0.03     12     12      0     14     25     25      0    0.0  0.000      0      0  0.000  0.000  0.000  0.000  0.000  0.000  0.000   4.40   0.00   0.00      0      0    231.1   0.02   0.00   0.21    0.26    0.11    0.00    0.00    0.00      0      0      0       0       0 17.05
 2015 184    10     8    4.0      1   0.05     14     12      0     14     27     27      0    0.0  0.000      0      0  0.000  0.000  0.000  0.000  0.000  0.000  0.000   4.08   0.00   0.00      0      0    333.5   0.03   0.00   0.23    0.26    0.11    0.00    0.00    0.00      0      0      0       0       0 19.94
 2015 185    11     9    5.0      1   0.07     24     12      0     15     37     37      0    0.0  0.000      0      0  0.000  0.000  0.000  0.000  0.000  0.000  0.000   2.98   0.00   0.00      0      0    299.8   0.04   0.00   0.25    0.26    0.12    0.01    0.00    0.00      0      0      0       0       0 21.43
 2015 186    12    10    5.0      1   0.10     37     12      0     16     50     50      0    0.0  0.000      0      0  0.000  0.000  0.015  0.000  0.000  0.000  0.000   3.10   0.00   0.00      0      0    274.7   0.05   0.00   0.27    0.27    0.13    0.01    0.00    0.00      0      0      0       0       0 21.87
 2015 187    13    11    6.0      1   0.14     49     12      0     18     61     61      0    0.0  0.000      0      0  0.000  0.000  0.000  0.000  0.000  0.000  0.000   3.34   0.00   0.00      0      0    277.3   0.07   0.00   0.30    0.28    0.14    0.03    0.00    0.00      0      0      0       0       0 21.79
 2015 188    14    12    6.0      1   0.17     64     12      0     20     76     76      0    0.0  0.000      0      0  0.000  0.000  0.000  0.000  0.000  0.000  0.000   3.29   0.00   0.00      0      0    262.7   0.09   0.00   0.32    0.29    0.15    0.05    0.00    0.00      0      0      0       0       0 21.73
 2015 189    15    13    7.0      1   0.20     78     12      0     23     90     90      0    0.0  0.000      0      0  0.000  0.000  0.000  0.000  0.000  0.000  0.000   3.39   0.00   0.00      0      0    252.0   0.11   0.00   0.34    0.30    0.17    0.06    0.00    0.00      0      0      0       0       0 21.23
 2015 190    16    14    7.0      1   0.23     93     12      0     25    106    106      0    0.0  0.000      0      0  0.000  0.000  0.000  0.000  0.000  0.000  0.000   3.38   0.00   0.00      0      0    242.6   0.12   0.00   0.38    0.31    0.18    0.08    0.01    0.00      0      0      0       0       0 20.20
 2015 191    17    15    7.0      1   0.26    114     12      0     29    126    126      0    0.0  0.000      0      0  0.000  0.000  0.000  0.000  0.000  0.000  0.000   3.27   0.00   0.00      0      0    232.6   0.14   0.00   0.42    0.32    0.19    0.09    0.02    0.00      0      0      0       0       1 20.53
 2015 192    18    16    8.0      2   0.32    142     12      0     33    154    154      0    0.0  0.000      0      0  0.000  0.029  0.000  0.000  0.000  0.000  0.000   3.15   0.00   0.00      0      0    222.1   0.17   0.00   0.46    0.34    0.21    0.12    0.04    0.00      0      0      0       0       1 21.50
 2015 193    19    17    8.0      2   0.33    151     12      0     35    163    163      0    0.0  0.000      0      0  0.000  0.000  0.006  0.000  0.000  0.000  0.000   3.68   0.00   0.00      0      0    219.1   0.18   0.00   0.49    0.34    0.22    0.12    0.05    0.00      0      0      0       0       1 17.88
 2015 194    20    18    9.0      2   0.38    180     12      0     40    192    192      0    0.0  0.000      0      0  0.000  0.000  0.000  0.000  0.000  0.000  0.000   3.24   0.00   0.00      0      0    211.2   0.20   0.00   0.53    0.36    0.23    0.14    0.07    0.01      0      0      0       0       1 18.64
 2015 195    21    19    9.0      2   0.44    215     12      0     46    228    228      0    0.0  0.000      0      0  0.000  0.000  0.000  0.000  0.000  0.000  0.000   3.79   0.00   0.00      0      0    203.4   0.24   0.00   0.57    0.37    0.25    0.17    0.09    0.02      0      0      0       0       1 20.81
 2015 196    22    20   10.0      2   0.49    249     12      0     52    261    261      0    0.0  0.000      0      0  0.000  0.000  0.000  0.000  0.000  0.000  0.000   3.72   0.00   0.00      0      0    197.2   0.26   0.00   0.60    0.39    0.27    0.19    0.11    0.04      0      0      0       0       1 20.33
 2015 197    23    21   10.0      3   0.58    308     13      0     55    320    320      0    0.0  0.000      0      0  0.000  0.000  0.000  0.000  0.000  0.000  0.000   3.62   0.00   0.00      0      0    188.4   0.31   0.00   0.60    0.40    0.28    0.20    0.12    0.05      0      0      0       0       2 20.68
 2015 198    24    22   11.0      3   0.66    359     13      0     58    373    373      0    0.0  0.000      0      0  0.000  0.000  0.000  0.000  0.000  0.000  0.000   3.54   0.00   0.00      0      0    183.2   0.35   0.00   0.60    0.40    0.28    0.21    0.13    0.06      0      0      0       0       2 19.44
 2015 199    25    23   11.0      3   0.77    434     16      0     62    450    450      0    0.0  0.000      0      0  0.000  0.048  0.000  0.000  0.000  0.000  0.000   3.48   0.00   0.00      0      0    177.0   0.41   0.00   0.60    0.42    0.30    0.22    0.14    0.07      0      0      0       0       2 20.90
 2015 200    26    24   11.0      3   0.87    504     20      0     65    524    524      0    0.0  0.000      0      0  0.000  0.000  0.000  0.000  0.000  0.000  0.000   3.42   0.00   0.00      0      0    172.3   0.47   0.00   0.60    0.43    0.31    0.24    0.16    0.08      0      0      0       0       3 21.75
 2015 201    27    25   12.0      3   0.91    537     23      0     67    560    560      0    0.0  0.000      0      0  0.000  0.000  0.000  0.000  0.000  0.000  0.000   3.38   0.00   0.00      0      0    170.2   0.49   0.00   0.60    0.43    0.31    0.24    0.16    0.09      0      0      0       0       3 16.80
 2015 202    28    26   12.0      3   0.99    591     30      0     70    621    621      0    0.0  0.000      0      0  0.000  0.000  0.000  0.000  0.000  0.000  0.000   3.33   0.00   0.00      0      0    167.2   0.53   0.00   0.60    0.43    0.32    0.25    0.17    0.10      0      0      0       0       3 18.45
 2015 203    29    27   13.0      3   1.09    665     42      0     75    707    707      0    0.0  0.000      0      0  0.000  0.000  0.000  0.000  0.000  0.000  0.000   3.28   0.00   0.00      0      0    163.6   0.59   0.00   0.60    0.43    0.33    0.26    0.19    0.12      0      0      0       0       4 18.70
 2015 204    30    28   13.0      3   1.20    751     61      0     80    812    812      0    0.0  0.000      0      0  0.000  0.059  0.000  0.000  0.000  0.000  0.000   3.23   0.00   0.00      0      0    159.9   0.65   0.00   0.60    0.44    0.35    0.28    0.21    0.14      0      0      0       0       4 18.65
 2015 205    31    29   14.0      3   1.30    826     82      0     85    908    908      0    0.0  0.000      0      0  0.000  0.000  0.000  0.000  0.000  0.000  0.000   3.18   0.00   0.00      0      0    157.1   0.70   0.00   0.60    0.45    0.36    0.30    0.23    0.15      0      0      0       0       4 19.25
 2015 206    32    30   14.0      3   1.39    901    108      0     90   1008   1008      0    0.0  0.000      0      0  0.000  0.000  0.000  0.000  0.000  0.000  0.000   3.13   0.00   0.00      0      0    154.5   0.75   0.00   0.60    0.46    0.37    0.31    0.24    0.17      0      0      0       0       5 19.85
 2015 207    33    31   14.0      3   1.44    943    125      0     93   1068   1068      0    0.0  0.000      0      0  0.000  0.000  0.000  0.000  0.000  0.000  0.000   3.08   0.00   0.00      0      0    153.1   0.78   0.00   0.60    0.47    0.38    0.32    0.25    0.18      0      0      0       0       5 18.80
 2015 208    34    32   15.0      3   1.48    973    140      0     95   1113   1113      0    0.0  0.000      0      0  0.000  0.000  0.000  0.000  0.000  0.000  0.000   3.04   0.00   0.00      0      0    152.2   0.80   0.00   0.60    0.47    0.39    0.33    0.26    0.19      0      0      0       0       6 17.20
 2015 209    35    33   15.0      3   1.56   1037    175      0    100   1213   1213      0    0.0  0.000      0      0  0.000  0.000  0.000  0.000  0.000  0.000  0.000   3.00   0.00   0.00      0      0    150.4   0.84   0.00   0.60    0.49    0.40    0.35    0.27    0.20      0      0      0       0       6 17.60
 2015 210    36    34   16.0      3   1.64   1107    221      0    106   1328   1328      0    0.0  0.000      0      0  0.000  0.000  0.000  0.000  0.000  0.000  0.000   2.96   0.00   0.00      0      0    148.5   0.89   0.00   0.60    0.50    0.42    0.37    0.29    0.22      0      0      0       0       7 18.90
 2015 211    37    35   16.0      3   1.73   1175    271      0    112   1447   1447      0    0.0  0.000      0      0  0.000  0.000  0.000  0.000  0.000  0.000  0.000   2.91   0.00   0.00      0      0    146.8   0.93   0.00   0.60    0.52    0.44    0.39    0.31    0.25      0      0      0       0       7 19.70
 2015 212    38    36   16.0      3   1.81   1251    336      0    119   1586   1586      0    0.0  0.000      0      0  0.000  0.000  0.000  0.000  0.000  0.000  0.000   2.86   0.00   0.00      0      0    145.1   0.98   0.00   0.60    0.54    0.46    0.42    0.33    0.27      0      0      0       0       8 19.70
 2015 213    39    37   17.0      3   1.90   1324    406      0    127   1730   1730      0    0.0  0.000      0      0  0.000  0.000  0.000  0.000  0.000  0.000  0.000   2.82   0.00   0.00      0      0    143.5   1.02   0.00   0.60    0.57    0.49    0.45    0.35    0.29      0      0      0       0       8 21.00
 2015 214    40    38   17.0      3   1.99   1399    435      0    132   1834   1834      0    0.0  0.000      0      0  0.000  0.000  0.000  0.000  0.000  0.000  0.000   2.78   0.00   0.00      0      0    142.0   1.07   0.00   0.60    0.58    0.51    0.47    0.36    0.31      0      0      0       0       9 18.20
 2015 215    41    39   18.0      3   2.05   1457    507      0    139   1965   1965      0    0.0  0.000      0      0  0.000  0.000  0.000  0.000  0.000  0.000  0.000   2.73   0.00   0.00      0      0    140.9   1.11   0.00   0.60    0.59    0.53    0.49    0.37    0.33      0      0      0       0      10 19.65
 2015 216    42    40   18.0      3   2.10   1496    571      0    144   2066   2067      0    0.0  0.000      0      0  0.000  0.000  0.000  0.000  0.000  0.000  0.000   2.69   0.00   0.00      0      0    140.2   1.13   0.00   0.60    0.59    0.54    0.51    0.40    0.34      0      0      0       0      10 18.25
 2015 217    43    41   19.0      3   2.14   1531    641      0    149   2172   2173      0    0.0  0.000      1      0  0.000  0.000  0.000  0.000  0.000  0.000  0.000   2.66   0.00   0.00      0      1    139.5   1.15   0.00   0.60    0.60    0.55    0.53    0.42    0.36      0      0      0       0      11 17.70
 2015 218    44    42   19.0      3   2.18   1573    737      0    156   2311   2314      0    0.0  0.000      3      0  0.000  0.000  0.000  0.000  0.000  0.000  0.000   2.62   0.00   0.00      0      3    138.8   1.18   0.00   0.60    0.61    0.57    0.56    0.44    0.38      0      0      0       0      12 18.95
 2015 219    45    43   19.0      3   2.20   1584    765      0    157   2348   2352      0    0.0  0.000      3      0  0.000  0.000  0.000  0.000  0.000  0.000  0.000   2.58   0.00   0.00      0      3    138.6   1.18   0.00   0.60    0.62    0.57    0.57    0.44    0.38      0      0      0       0      13 15.85
 2015 220    46    44   20.0      3   2.23   1618    857      0    164   2475   2482      0    0.0  0.000      7      0  0.000  0.000  0.000  0.000  0.000  0.000  0.000   2.55   0.00   0.00      0      7    138.0   1.20   0.00   0.60    0.63    0.59    0.60    0.46    0.40      0      0      0       0      13 18.35
 2015 221    47    45   20.0      3   2.27   1648    942      0    170   2590   2601      0    0.0  0.000     11      0  0.000  0.000  0.000  0.000  0.000  0.000  0.000   2.51   0.00   0.00      0     11    137.5   1.22   0.00   0.60    0.64    0.61    0.62    0.48    0.42      0      0      0       0      14 19.10
 2015 222    48    46   21.0      3   2.30   1675   1021      0    175   2696   2712      0    0.0  0.000     16      0  0.000  0.000  0.000  0.000  0.000  0.000  0.000   2.48   0.00   0.01      0     16    137.1   1.24   0.00   0.60    0.65    0.63    0.65    0.49    0.43      0      0      0       0      15 18.00
 2015 223    49    47   21.0      3   2.34   1713   1134      0    183   2847   2877      0    0.0  0.000     31      0  0.000  0.000  0.000  0.000  0.000  0.000  0.000   2.45   0.00   0.01      0     31    136.5   1.26   0.00   0.60    0.68    0.66    0.69    0.51    0.45      0      0      0       0      16 19.35
 2015 224    50    48   21.0      3   2.36   1736   1208      0    188   2945   2984      0    0.0  0.000     39      0  0.000  0.000  0.000  0.000  0.000  0.000  0.000   2.40   0.00   0.01      0     39    136.2   1.27   0.00   0.60    0.69    0.67    0.72    0.51    0.47      0      0      0       0      17 18.65
 2015 225    51    49   21.0      3   2.40   1773   1312      0    197   3085   3151      0    0.0  0.000     66      0  0.000  0.000  0.000  0.000  0.000  0.000  0.000   2.38   0.00   0.02      0     66    135.6   1.30   0.00   0.60    0.72    0.71    0.77    0.52    0.48      0      0      0       0      18 19.65
 2015 226    52    50   21.0      3   2.41   1781   1338      0    198   3119   3186      0    0.0  0.000     68      0  0.000  0.000  0.000  0.000  0.000  0.000  0.000   2.35   0.00   0.02      0     68    135.5   1.30   0.00   0.60    0.72    0.71    0.78    0.52    0.48      0      0      0       0      18 16.05
 2015 227    53    51   21.0      3   2.44   1809   1412      0    204   3221   3313      0    0.0  0.000     92      0  0.000  0.000  0.000  0.000  0.000  0.000  0.000   2.31   0.00   0.03      0     92    135.1   1.32   0.00   0.60    0.75    0.74    0.82    0.53    0.49      0      0      0       0      19 18.20
 2015 228    54    52   21.0      3   2.48   1842   1491      0    211   3333   3464      0    0.0  0.000    131      0  0.000  0.000  0.000  0.000  0.000  0.000  0.000   2.29   0.00   0.04      0    131    134.6   1.34   0.00   0.60    0.78    0.78    0.87    0.53    0.49      0      0      0       0      20 19.30
 2015 229    55    53   21.0      3   2.50   1860   1541      0    215   3402   3546      0    0.0  0.000    144      0  0.000  0.000  0.000  0.000  0.000  0.000  0.000   2.24   0.00   0.04      0    144    134.3   1.35   0.00   0.60    0.80    0.80    0.90    0.53    0.49      0      0      0       0      20 18.65
 2015 230    56    54   21.0      4   2.38   1838   1580      0    219   3418   3641      0    0.0  0.000    224      0  0.000  0.000  0.000  0.000  0.000  0.000  0.000   2.26   0.00   0.06      0    224    129.5   1.35   0.00   0.60    0.81    0.82    0.93    0.53    0.49      0      0      0       0      21 18.50
 2015 231    57    55   21.0      4   2.37   1813   1608      0    222   3420   3714      0    0.0  0.000    294      0  0.000  0.000  0.000  0.000  0.000  0.000  0.000   2.26   0.00   0.08      0    294    130.6   1.35   0.00   0.60    0.82    0.84    0.95    0.53    0.49      0      0      0       0      21 18.00
 2015 232    58    56   21.0      4   2.36   1786   1636      0    226   3422   3806      0    0.0  0.000    384      0  0.000  0.000  0.000  0.000  0.000  0.000  0.000   2.26   0.00   0.10      0    384    131.9   1.35   0.00   0.60    0.84    0.86    0.98    0.53    0.49      0      0      0       0      21 18.05
 2015 233    59    57   21.0      4   2.35   1758   1655      0    229   3413   3872      0    0.0  0.000    459      0  0.000  0.000  0.000  0.000  0.000  0.000  0.000   2.26   0.00   0.12      0    459    133.5   1.35   0.00   0.60    0.85    0.88    1.00    0.54    0.49      0      0      0       0      21 16.90
 2015 234    60    58   21.0      4   2.33   1728   1683      0    234   3411   3996      0    0.0  0.000    586      0  0.000  0.000  0.000  0.000  0.000  0.000  0.000   2.26   0.00   0.15      0    586    135.1   1.35   0.00   0.60    0.87    0.90    1.04    0.55    0.49      0      0      0       0      21 18.95
 2015 235    61    59   21.0      4   2.32   1695   1707      0    240   3403   4115      0    0.0  0.000    712      0  0.000  0.000  0.000  0.000  0.000  0.000  0.000   2.27   0.00   0.17      0    712    136.9   1.35   0.00   0.60    0.89    0.93    1.07    0.55    0.50      0      0      0       0      21 20.55
 2015 236    62    60   21.0      4   2.31   1661   1721      0    243   3382   4175      0    0.0  0.000    793      0  0.000  0.000  0.000  0.000  0.000  0.000  0.000   2.28   0.00   0.19      0    793    139.1   1.35   0.00   0.60    0.90    0.94    1.09    0.56    0.50      0      0      0       0      21 18.80
 2015 237    63    61   21.0      4   2.30   1624   1739      0    247   3363   4266      0    0.0  0.000    903      0  0.000  0.000  0.000  0.000  0.000  0.000  0.000   2.30   0.00   0.21      0    903    141.4   1.35   0.00   0.60    0.92    0.96    1.12    0.56    0.50      0      0      0       0      21 19.30
 2015 238    64    62   21.0      4   2.29   1586   1741      0    246   3327   4243      0    0.0  0.000    915      0  0.000  0.000  0.000  0.000  0.000  0.000  0.000   2.32   0.00   0.22      0    915    144.2   1.35   0.00   0.60    0.92    0.96    1.11    0.56    0.50      0      0      0       0      21 15.15
 2015 239    65    63   21.0      5   2.20   1586   1741     90    266   3327   4333    753   12.0  0.021   1006      6  0.000  0.000  0.000  0.000  0.000  0.000  0.000   2.27   8.99   0.23      0   1006    138.8   1.35   0.00   0.60    0.97    1.03    1.21    0.62    0.53      0      0      0       0      21 17.35
 2015 240    66    64   21.0      5   2.18   1586   1741    181    274   3327   4423    753   24.0  0.041   1096      6  0.000  0.000  0.000  0.000  0.000  0.000  0.000   2.23  16.49   0.25      0   1096    137.4   1.35   0.00   0.60    0.99    1.06    1.25    0.65    0.55      0      0      0       0      21 18.85
 2015 241    67    65   21.0      5   2.16   1586   1741    271    278   3327   4514    753   36.0  0.060   1187      6  0.000  0.000  0.000  0.000  0.000  0.000  0.000   2.18  22.85   0.26      0   1187    135.9   1.35   0.00   0.60    1.00    1.06    1.26    0.66    0.56      0      0      0       0      21 17.00
 2015 242    68    66   21.0      5   2.12   1586   1741    361    288   3327   4604    753   48.0  0.079   1277      6  0.000  0.000  0.000  0.000  0.000  0.000  0.000   2.13  28.31   0.28      0   1277    134.0   1.35   0.00   0.60    1.03    1.10    1.31    0.68    0.58      0      0      0       0      21 18.95
 2015 243    69    67   21.0      5   2.09   1586   1741    452    299   3327   4695    753   60.0  0.096   1367      6  0.000  0.000  0.000  0.000  0.000  0.000  0.000   2.09  33.05   0.29      0   1367    131.7   1.35   0.00   0.60    1.06    1.14    1.37    0.71    0.61      0      0      0       0      21 18.40
 2015 244    70    68   21.0      5   2.05   1586   1724    542    298   3310   4768    753   72.0  0.114   1458      6  0.000  0.000  0.000  0.000  0.000  0.000  0.000   2.05  37.20   0.31      0   1458    129.4   1.35   0.00   0.60    1.06    1.14    1.37    0.71    0.61      0      0      0       0      21 16.35
 2015 245    71    69   21.0      5   2.01   1586   1741    633    315   3327   4875    753   84.0  0.130   1548      6  0.000  0.000  0.000  0.000  0.000  0.000  0.000   1.99  40.87   0.32      0   1548    126.5   1.35   0.00   0.60    1.11    1.20    1.45    0.75    0.65      0      0      0       0      21 18.65
 2015 246    72    70   21.0      5   1.95   1586   1741    723    314   3327   4966    753   96.0  0.146   1638      6  0.000  0.000  0.000  0.000  0.000  0.000  0.000   1.95  44.13   0.33      0   1638    123.3   1.35   0.00   0.60    1.11    1.19    1.45    0.75    0.65      0      0      0       0      21 17.85
 2015 247    73    71   21.0      5   1.90   1586   1741    813    325   3327   5056    753  108.0  0.161   1729      6  0.000  0.000  0.000  0.000  0.000  0.000  0.000   1.90  47.05   0.34      0   1729    119.5   1.35   0.00   0.60    1.14    1.23    1.50    0.78    0.67      0      0      0       0      21 18.50
 2015 248    74    72   21.0      5   1.83   1586   1741    904    330   3327   5146    753  120.0  0.176   1819      6  0.000  0.000  0.000  0.000  0.000  0.000  0.000   1.85  49.68   0.35      0   1819    115.2   1.35   0.00   0.60    1.14    1.25    1.53    0.79    0.69      0      0      0       0      21 18.75
 2015 249    75    73   21.0      5   1.75   1586   1741    990    334   3327   5232    753  131.4  0.189   1905      6  0.000  0.000  0.000  0.000  0.000  0.000  0.000   1.81  51.95   0.36      0   1905    110.3   1.35   0.00   0.60    1.15    1.26    1.55    0.80    0.70      0      0      0       0      21 19.40
 2015 250    76    74   21.0      5   1.66   1586   1741   1070    355   3327   5313    753  142.1  0.201   1985      6  0.000  0.000  0.000  0.000  0.000  0.000  0.000   1.76  53.89   0.37      0   1985    104.7   1.35   0.00   0.60    1.20    1.32    1.64    0.86    0.75      0      0      0       0      21 19.90
 2015 251    77    75   21.0      5   1.57   1586   1741   1160    365   3327   5403    753  154.0  0.215   2076      6  0.000  0.000  0.000  0.000  0.000  0.000  0.000   1.72  55.90   0.38      0   2076     98.9   1.35   0.00   0.60    1.23    1.36    1.69    0.88    0.78      0      0      0       0      21 18.45
 2015 252    78    76   21.0      5   1.46   1586   1741   1249    366   3327   5492    753  165.8  0.227   2164      6  0.000  0.000  0.000  0.000  0.000  0.000  0.000   1.67  57.70   0.39      0   2164     92.3   1.35   0.00   0.60    1.23    1.36    1.69    0.89    0.78      0      0      0       0      21 19.15
 2015 253    79    77   21.0      5   1.34   1586   1741   1324    383   3327   5567    753  175.8  0.238   2239      6  0.000  0.000  0.000  0.000  0.000  0.000  0.000   1.63  59.12   0.40      0   2239     84.7   1.35   0.00   0.60    1.29    1.42    1.78    0.93    0.82      0      0      0       0      21 20.35
 2015 254    80    78   21.0      5   1.22   1586   1741   1410    388   3327   5653    753  187.2  0.249   2325      6  0.000  0.000  0.000  0.000  0.000  0.000  0.000   1.58  60.63   0.41      0   2325     76.7   1.35   0.00   0.60    1.30    1.44    1.80    0.94    0.83      0      0      0       0      21 19.40
 2015 255    81    79   21.0      5   1.08   1586   1741   1496    397   3327   5738    753  198.6  0.261   2411      6  0.000  0.000  0.000  0.000  0.000  0.000  0.000   1.54  62.03   0.42      0   2411     67.9   1.35   0.00   0.60    1.33    1.47    1.84    0.96    0.85      0      0      0       0      21 19.40
 2015 256    82    80   21.0      5   1.08   1586   1741   1496    397   3327   5738    753  198.6  0.261   2411      6  0.000  0.000  0.000  0.000  0.000  0.000  0.000   1.54  62.03   0.42      0   2411     67.9   1.35   0.00   0.60    1.36    1.50    1.89    0.99    0.88      0      0      0       0      21 20.25
 2015 257    83    81   21.0      5   1.08   1586   1741   1496    397   3327   5738    753  198.6  0.261   2411      6  0.000  0.000  0.000  0.000  0.000  0.000  0.000   1.54  62.03   0.42      0   2411     67.9   1.35   0.00   0.60    1.39    1.54    1.93    1.01    0.90      0      0      0       0      21 19.40
 2015 258    84    82   21.0      5   1.08   1586   1741   1496    397   3327   5738    753  198.6  0.261   2411      6  0.000  0.000  0.000  0.000  0.000  0.000  0.000   1.54  62.03   0.42      0   2411     67.9   1.35   0.00   0.60    1.43    1.57    1.98    1.03    0.92      0      0      0       0      21  0.00
 2015 259    85    83   21.0      5   1.08   1586   1741   1496    397   3327   5738    753  198.6  0.261   2411      6  0.000  0.000  0.000  0.000  0.000  0.000  0.000   1.54  62.03   0.42      0   2411     67.9   1.35   0.00   0.60    1.46    1.61    2.02    1.05    0.94      0      0      0       0      21 18.95
 2015 260    86    84   21.0      5   1.08   1586   1741   1496    397   3327   5738    753  198.6  0.261   2411      6  0.000  0.000  0.000  0.000  0.000  0.000  0.000   1.54  62.03   0.42      0   2411     67.9   1.35   0.00   0.60    1.49    1.65    2.06    1.07    0.95      0      0      0       0      21 18.40
 2015 261    87    85   21.0      5   1.08   1586   1741   1496    397   3327   5738    753  198.6  0.261   2411      6  0.000  0.000  0.000  0.000  0.000  0.000  0.000   1.54  62.03   0.42      0   2411     67.9   1.35   0.00   0.60    1.52    1.69    2.11    1.09    0.97      0      0      0       0      21 19.15
 2015 262    88    86   21.0      5   1.08   1586   1741   1496    397   3327   5738    753  198.6  0.261   2411      6  0.000  0.000  0.000  0.000  0.000  0.000  0.000   1.54  62.03   0.42      0   2411     67.9   1.35   0.00   0.60    1.56    1.73    2.16    1.11    0.99      0      0      0       0      21 19.95
 2015 263    89    87   21.0      5   1.08   1586   1741   1496    397   3327   5738    753  198.6  0.261   2411      6  0.000  0.000  0.000  0.000  0.000  0.000  0.000   1.54  62.03   0.42      0   2411     67.9   1.35   0.00   0.60    1.58    1.77    2.20    1.13    1.01      0      0      0       0      21 20.59
 2015 264    90    88   21.0      5   1.08   1586   1741   1496    397   3327   5738    753  198.6  0.261   2411      6  0.000  0.000  0.000  0.000  0.000  0.000  0.000   1.54  62.03   0.42      0   2411     67.9   1.35   0.00   0.60    1.60    1.80    2.25    1.15    1.02      0      0      0       0      21 18.60
 2015 265    91    89   21.0      5   1.08   1586   1741   1496    397   3327   5738    753  198.6  0.261   2411      6  0.000  0.000  0.000  0.000  0.000  0.000  0.000   1.54  62.03   0.42      0   2411     67.9   1.35   0.00   0.60    1.62    1.83    2.29    1.18    1.04      0      0      0       0      21 18.75
 2015 266    92    90   21.0      5   1.08   1586   1741   1496    397   3327   5738    753  198.6  0.261   2411      6  0.000  0.000  0.000  0.000  0.000  0.000  0.000   1.54  62.03   0.42      0   2411     67.9   1.35   0.00   0.60    1.65    1.86    2.33    1.21    1.06      0      0      0       0      21 20.15
 2015 267    93    91   21.0      5   1.08   1586   1741   1496    397   3327   5738    753  198.6  0.261   2411      6  0.000  0.000  0.000  0.000  0.000  0.000  0.000   1.54  62.03   0.42      0   2411     67.9   1.35   0.00   0.60    1.68    1.90    2.37    1.23    1.08      0      0      0       0      21 20.47
 2015 268    94    92   21.0      5   1.08   1586   1741   1496    397   3327   5738    753  198.6  0.261   2411      6  0.000  0.000  0.000  0.000  0.000  0.000  0.000   1.54  62.03   0.42      0   2411     67.9   1.35   0.00   0.60    1.71    1.93    2.41    1.25    1.10      0      0      0       0      21 19.75
 2015 269    95    93   21.0      5   1.08   1586   1741   1496    397   3327   5738    753  198.6  0.261   2411      6  0.000  0.000  0.000  0.000  0.000  0.000  0.000   1.54  62.03   0.42      0   2411     67.9   1.35   0.00   0.60    1.74    1.96    2.45    1.28    1.11      0      0      0       0      21 20.00
 2015 270    96    94   21.0      5   1.08   1586   1741   1496    397   3327   5738    753  198.6  0.261   2411      6  0.000  0.000  0.000  0.000  0.000  0.000  0.000   1.54  62.03   0.42      0   2411     67.9   1.35   0.00   0.60    1.77    2.00    2.49    1.30    1.13      0      0      0       0      21 20.67
 2015 271    97    95   21.0      5   1.08   1586   1741   1496    397   3327   5738    753  198.6  0.261   2411      6  0.000  0.000  0.000  0.000  0.000  0.000  0.000   1.54  62.03   0.42      0   2411     67.9   1.35   0.00   0.60    1.80    2.03    2.53    1.32    1.15      0      0      0       0      21 18.65
 2015 272    98    96   21.0      5   1.08   1586   1741   1496    397   3327   5738    753  198.6  0.261   2411      6  0.000  0.000  0.000  0.000  0.000  0.000  0.000   1.54  62.03   0.42      0   2411     67.9   1.35   0.00   0.60    1.82    2.07    2.57    1.35    1.16      0      0      0       0      21 18.55
 2015 273    99    97   21.0      5   1.08   1586   1741   1496    397   3327   5738    753  198.6  0.261   2411      6  0.000  0.000  0.000  0.000  0.000  0.000  0.000   1.54  62.03   0.42      0   2411     67.9   1.35   0.00   0.60    1.85    2.11    2.62    1.37    1.18      0      0      0       0      21 18.40
 2015 274   100    98   21.0      5   1.08   1586   1741   1496    397   3327   5738    753  198.6  0.261   2411      6  0.000  0.000  0.000  0.000  0.000  0.000  0.000   1.54  62.03   0.42      0   2411     67.9   1.35   0.00   0.60    1.88    2.14    2.66    1.39    1.20      0      0      0       0      21 19.85
 2015 275   101    99   21.0      5   1.08   1586   1741   1496    397   3327   5738    753  198.6  0.261   2411      6  0.000  0.000  0.000  0.000  0.000  0.000  0.000   1.54  62.03   0.42      0   2411     67.9   1.35   0.00   0.60    1.91    2.18    2.70    1.41    1.21      0      0      0       0      21 20.75
 2015 276   102   100   21.0      5   1.08   1586   1741   1496    397   3327   5738    753  198.6  0.261   2411      6  0.000  0.000  0.000  0.000  0.000  0.000  0.000   1.54  62.03   0.42      0   2411     67.9   1.35   0.00   0.60    1.95    2.22    2.74    1.43    1.23      0      0      0       0      21 18.95
 2015 277   103   101   21.0      5   1.08   1586   1741   1496    397   3327   5738    753  198.6  0.261   2411      6  0.000  0.000  0.000  0.000  0.000  0.000  0.000   1.54  62.03   0.42      0   2411     67.9   1.35   0.00   0.60    1.96    2.25    2.78    1.45    1.24      0      0      0       0      21 18.80
 2015 278   104   102   21.0      5   1.08   1586   1741   1496    397   3327   5738    753  198.6  0.261   2411      6  0.000  0.000  0.000  0.000  0.000  0.000  0.000   1.54  62.03   0.42      0   2411     67.9   1.35   0.00   0.60    1.98    2.28    2.82    1.48    1.26      0      0      0       0      21 19.40
 2015 279   105   103   21.0      5   1.08   1586   1741   1496    397   3327   5738    753  198.6  0.261   2411      6  0.000  0.000  0.000  0.000  0.000  0.000  0.000   1.54  62.03   0.42      0   2411     67.9   1.35   0.00   0.60    1.99    2.31    2.86    1.51    1.27      0      0      0       0      21 19.45
 2015 280   106   104   21.0      5   1.08   1586   1741   1496    397   3327   5738    753  198.6  0.261   2411      6  0.000  0.000  0.000  0.000  0.000  0.000  0.000   1.54  62.03   0.42      0   2411     67.9   1.35   0.00   0.60    2.01    2.34    2.89    1.54    1.29      0      0      0       0      21 19.70
 2015 281   107   105   21.0      5   1.08   1586   1741   1496    397   3327   5738    753  198.6  0.261   2411      6  0.000  0.000  0.000  0.000  0.000  0.000  0.000   1.54  62.03   0.42      0   2411     67.9   1.35   0.00   0.60    2.03    2.36    2.93    1.57    1.31      0      0      0       0      21 19.75
 2015 282   108   106   21.0      5   1.08   1586   1741   1496    397   3327   5738    753  198.6  0.261   2411      6  0.000  0.000  0.000  0.000  0.000  0.000  0.000   1.54  62.03   0.42      0   2411     67.9   1.35   0.00   0.60    2.05    2.39    2.96    1.60    1.33      0      0      0       0      21 21.10
 2015 283   109   107   21.0      5   1.08   1586   1741   1496    397   3327   5738    753  198.6  0.261   2411      6  0.000  0.000  0.000  0.000  0.000  0.000  0.000   1.54  62.03   0.42      0   2411     67.9   1.35   0.00   0.60    2.06    2.41    3.00    1.64    1.35      0      0      0       0      21 20.05
 2015 284   110   108   21.0      5   1.08   1586   1741   1496    397   3327   5738    753  198.6  0.261   2411      6  0.000  0.000  0.000  0.000  0.000  0.000  0.000   1.54  62.03   0.42      0   2411     67.9   1.35   0.00   0.60    2.07    2.44    3.03    1.67    1.37      0      0      0       0      21 20.20
 2015 285   111   109   21.0      5   1.08   1586   1741   1496    397   3327   5738    753  198.6  0.261   2411      6  0.000  0.000  0.000  0.000  0.000  0.000  0.000   1.54  62.03   0.42      0   2411     67.9   1.35   0.00   0.60    2.08    2.46    3.06    1.70    1.39      0      0      0       0      21 20.40
 2015 286   112   110   21.0      5   1.08   1586   1741   1496    397   3327   5738    753  198.6  0.261   2411      6  0.000  0.000  0.000  0.000  0.000  0.000  0.000   1.54  62.03   0.42      0   2411     67.9   1.35   0.00   0.60    2.10    2.48    3.09    1.73    1.42      0      0      0       0      21 19.80
 2015 287   113   111   21.0      5   1.08   1586   1741   1496    397   3327   5738    753  198.6  0.261   2411      6  0.000  0.000  0.000  0.000  0.000  0.000  0.000   1.54  62.03   0.42      0   2411     67.9   1.35   0.00   0.60    2.12    2.50    3.12    1.76    1.44      0      0      0       0      21 21.30
 2015 288   114   112   21.0      5   1.08   1586   1741   1496    397   3327   5738    753  198.6  0.261   2411      6  0.000  0.000  0.000  0.000  0.000  0.000  0.000   1.54  62.03   0.42      0   2411     67.9   1.35   0.00   0.60    2.14    2.52    3.15    1.79    1.46      0      0      0       0      21 20.62
 2015 289   115   113   21.0      5   1.08   1586   1741   1496    397   3327   5738    753  198.6  0.261   2411      6  0.000  0.000  0.000  0.000  0.000  0.000  0.000   1.54  62.03   0.42      0   2411     67.9   1.35   0.00   0.60    2.16    2.55    3.18    1.82    1.48      0      0      0       0      21 20.59
 2015 290   116   114   21.0      5   1.08   1586   1741   1496    397   3327   5738    753  198.6  0.261   2411      6  0.000  0.000  0.000  0.000  0.000  0.000  0.000   1.54  62.03   0.42      0   2411     67.9   1.35   0.00   0.60    2.19    2.57    3.21    1.85    1.50      0      0      0       0      21 20.59
 2015 291   117   115   21.0      5   1.08   1586   1741   1496    397   3327   5738    753  198.6  0.261   2411      6  0.000  0.000  0.000  0.000  0.000  0.000  0.000   1.54  62.03   0.42      0   2411     67.9   1.35   0.00   0.60    2.21    2.59    3.24    1.88    1.52      0      0      0       0      21 20.30
 2015 292   118   116   21.0      5   1.08   1586   1741   1496    397   3327   5738    753  198.6  0.261   2411      6  0.000  0.000  0.000  0.000  0.000  0.000  0.000   1.54  62.03   0.42      0   2411     67.9   1.35   0.00   0.60    2.23    2.62    3.27    1.90    1.55      0      0      0       0      21 20.98
 2015 293   119   117   21.0      5   1.08   1586   1741   1496    397   3327   5738    753  198.6  0.261   2411      6  0.000  0.000  0.000  0.000  0.000  0.000  0.000   1.54  62.03   0.42      0   2411     67.9   1.35   0.00   0.60    2.26    2.64    3.30    1.93    1.57      0      0      0       0      21 19.70
 2015 294   120   118   21.0      5   1.08   1586   1741   1496    397   3327   5738    753  198.6  0.261   2411      6  0.000  0.000  0.000  0.000  0.000  0.000  0.000   1.54  62.03   0.42      0   2411     67.9   1.35   0.00   0.60    2.29    2.67    3.33    1.96    1.59      0      0      0       0      21 20.05
 2015 295   121   119   21.0      5   1.08   1586   1741   1496    397   3327   5738    753  198.6  0.261   2411      6  0.000  0.000  0.000  0.000  0.000  0.000  0.000   1.54  62.03   0.42      0   2411     67.9   1.35   0.00   0.60    2.31    2.69    3.36    1.99    1.61      0      0      0       0      21 20.10
 2015 296   122   120   21.0      5   1.08   1586   1741   1496    397   3327   5738    753  198.6  0.261   2411      6  0.000  0.000  0.000  0.000  0.000  0.000  0.000   1.54  62.03   0.42      0   2411     67.9   1.35   0.00   0.60    2.34    2.71    3.39    2.01    1.63      0      0      0       0      21 20.45
 2015 297   123   121   21.0      5   1.08   1586   1741   1496    397   3327   5738    753  198.6  0.261   2411      6  0.000  0.000  0.000  0.000  0.000  0.000  0.000   1.54  62.03   0.42      0   2411     67.9   1.35   0.00   0.60    2.37    2.74    3.42    2.04    1.65      0      0      0       0      21 21.61
 2015 298   124   122   21.0      5   1.08   1586   1741   1496    397   3327   5738    753  198.6  0.261   2411      6  0.000  0.000  0.000  0.000  0.000  0.000  0.000   1.54  62.03   0.42      0   2411     67.9   1.35   0.00   0.60    2.39    2.76    3.44    2.06    1.66      0      0      0       0      21 21.25
 2015 299   125   123   21.0      5   1.08   1586   1741   1496    397   3327   5738    753  198.6  0.261   2411      6  0.000  0.000  0.000  0.000  0.000  0.000  0.000   1.54  62.03   0.42      0   2411     67.9   1.35   0.00   0.60    2.42    2.79    3.47    2.09    1.68      0      0      0       0      21 19.60
 2015 300   126   124   21.0      5   1.08   1586   1741   1496    397   3327   5738    753  198.6  0.261   2411      6  0.000  0.000  0.000  0.000  0.000  0.000  0.000   1.54  62.03   0.42      0   2411     67.9   1.35   0.00   0.60    2.44    2.81    3.50    2.12    1.70      0      0      0       0      21 21.43
 2015 301   127   125   21.0      5   1.08   1586   1741   1496    397   3327   5738    753  198.6  0.261   2411      6  0.000  0.000  0.000  0.000  0.000  0.000  0.000   1.54  62.03   0.42      0   2411     67.9   1.35   0.00   0.60    2.45    2.84    3.53    2.14    1.72      0      0      0       0      21 20.53
 2015 302   128   126   21.0      5   1.08   1586   1741   1496    397   3327   5738    753  198.6  0.261   2411      6  0.000  0.000  0.000  0.000  0.000  0.000  0.000   1.54  62.03   0.42      0   2411     67.9   1.35   0.00   0.60    2.47    2.86    3.56    2.17    1.74      0      0      0       0      21 20.48
 2015 303   129   127   21.0      5   1.08   1586   1741   1496    397   3327   5738    753  198.6  0.261   2411      6  0.000  0.000  0.000  0.000  0.000  0.000  0.000   1.54  62.03   0.42      0   2411     67.9   1.35   0.00   0.60    2.49    2.89    3.59    2.19    1.76      0      0      0       0      21 20.36
 2015 304   130   128   21.0      5   1.08   1586   1741   1496    397   3327   5738    753  198.6  0.261   2411      6  0.000  0.000  0.000  0.000  0.000  0.000  0.000   1.54  62.03   0.42      0   2411     67.9   1.35   0.00   0.60    2.52    2.92    3.61    2.22    1.78      0      0      0       0      21 20.80
 2015 305   131   129   21.0      5   1.08   1586   1741   1496    397   3327   5738    753  198.6  0.261   2411      6  0.000  0.000  0.000  0.000  0.000  0.000  0.000   1.54  62.03   0.42      0   2411     67.9   1.35   0.00   0.60    2.54    2.95    3.64    2.24    1.80      0      0      0       0      21 20.30
 2015 306   132   130   21.0      5   1.08   1586   1741   1496    397   3327   5738    753  198.6  0.261   2411      6  0.000  0.000  0.000  0.000  0.000  0.000  0.000   1.54  62.03   0.42      0   2411     67.9   1.35   0.00   0.60    2.57    2.97    3.67    2.26    1.82      0      0      0       0      21 20.42
 2015 307   133   131   21.0      5   1.08   1586   1741   1496    397   3327   5738    753  198.6  0.261   2411      6  0.000  0.000  0.000  0.000  0.000  0.000  0.000   1.54  62.03   0.42      0   2411     67.9   1.35   0.00   0.60    2.60    3.00    3.69    2.29    1.83      0      0      0       0      21 19.89
 2015 308   134   132   21.0      5   1.08   1586   1741   1496    397   3327   5738    753  198.6  0.261   2411      6  0.000  0.000  0.000  0.000  0.000  0.000  0.000   1.54  62.03   0.42      0   2411     67.9   1.35   0.00   0.60    2.63    3.03    3.71    2.31    1.85      0      0      0       0      21 18.97
 2015 309   135   133   21.0      5   1.08   1586   1741   1496    397   3327   5738    753  198.6  0.261   2411      6  0.000  0.000  0.000  0.000  0.000  0.000  0.000   1.54  62.03   0.42      0   2411     67.9   1.35   0.00   0.60    2.66    3.06    3.73    2.34    1.87      0      0      0       0      21 19.18
 2015 310   136   134   21.0      5   1.08   1586   1741   1496    397   3327   5738    753  198.6  0.261   2411      6  0.000  0.000  0.000  0.000  0.000  0.000  0.000   1.54  62.03   0.42      0   2411     67.9   1.35   0.00   0.60    2.69    3.09    3.75    2.36    1.89      0      0      0       0      21 19.08
 2015 311   137   135   21.0      5   1.08   1586   1741   1496    397   3327   5738    753  198.6  0.261   2411      6  0.000  0.000  0.000  0.000  0.000  0.000  0.000   1.54  62.03   0.42      0   2411     67.9   1.35   0.00   0.60    2.72    3.12    3.76    2.39    1.91      0      0      0       0      21 18.80
 2015 312   138   136   21.0      5   1.08   1586   1741   1496    397   3327   5738    753  198.6  0.261   2411      6  0.000  0.000  0.000  0.000  0.000  0.000  0.000   1.54  62.03   0.42      0   2411     67.9   1.35   0.00   0.60    2.74    3.15    3.78    2.42    1.93      0      0      0       0      21 19.20
 2015 313   139   137   21.0      5   1.08   1586   1741   1496    397   3327   5738    753  198.6  0.261   2411      6  0.000  0.000  0.000  0.000  0.000  0.000  0.000   1.54  62.03   0.42      0   2411     67.9   1.35   0.00   0.60    2.76    3.18    3.79    2.45    1.96      0      0      0       0      21 20.20
 2015 314   140   138   21.0      5   1.08   1586   1741   1496    397   3327   5738    753  198.6  0.261   2411      6  0.000  0.000  0.000  0.000  0.000  0.000  0.000   1.54  62.03   0.42      0   2411     67.9   1.35   0.00   0.60    2.76    3.21    3.81    2.48    1.98      0      0      0       0      21 20.63
 2015 315   141   139   21.0      5   1.08   1586   1741   1496    397   3327   5738    753  198.6  0.261   2411      6  0.000  0.000  0.000  0.000  0.000  0.000  0.000   1.54  62.03   0.42      0   2411     67.9   1.35   0.00   0.60    2.76    3.23    3.82    2.51    2.01      0      0      0       0      21 19.76
 2015 316   142   140   21.0      5   1.08   1586   1741   1496    397   3327   5738    753  198.6  0.261   2411      6  0.000  0.000  0.000  0.000  0.000  0.000  0.000   1.54  62.03   0.42      0   2411     67.9   1.35   0.00   0.60    2.75    3.25    3.83    2.55    2.04      0      0      0       0      21 19.08
 2015 317   143   141   21.0      5   1.08   1586   1741   1496    397   3327   5738    753  198.6  0.261   2411      6  0.000  0.000  0.000  0.000  0.000  0.000  0.000   1.54  62.03   0.42      0   2411     67.9   1.35   0.00   0.60    2.74    3.27    3.85    2.59    2.07      0      0      0       0      21 19.81
 2015 318   144   142   21.0      5   1.08   1586   1741   1496    397   3327   5738    753  198.6  0.261   2411      6  0.000  0.000  0.000  0.000  0.000  0.000  0.000   1.54  62.03   0.42      0   2411     67.9   1.35   0.00   0.60    2.73    3.29    3.86    2.63    2.10      0      0      0       0      21 17.69
 2015 319   145   143   21.0      5   1.08   1586   1741   1496    397   3327   5738    753  198.6  0.261   2411      6  0.000  0.000  0.000  0.000  0.000  0.000  0.000   1.54  62.03   0.42      0   2411     67.9   1.35   0.00   0.60    2.71    3.31    3.87    2.66    2.13      0      0      0       0      21 17.85
 2015 320   146   144   21.0      5   1.08   1586   1741   1496    397   3327   5738    753  198.6  0.261   2411      6  0.000  0.000  0.000  0.000  0.000  0.000  0.000   1.54  62.03   0.42      0   2411     67.9   1.35   0.00   0.60    2.70    3.33    3.88    2.69    2.17      0      0      0       0      21 18.35
 2015 321   147   145   21.0      5   1.08   1586   1741   1496    397   3327   5738    753  198.6  0.261   2411      6  0.000  0.000  0.000  0.000  0.000  0.000  0.000   1.54  62.03   0.42      0   2411     67.9   1.35   0.00   0.60    2.68    3.34    3.89    2.73    2.21      0      0      0       0      21 18.40
