*SOIL WATER DAILY OUTPUT FILE

*DSSAT Cropping System Model Ver. 4.7.2.000 -release      OCT 15, 2021; 17:59:33
                                                                                
*RUN   1        :             CSM335_date_1 MZCER047 ITSA1301    1              
 MODEL          : MZCER047 - Maize                                              
 EXPERIMENT     : ITSA1301 SG CALIBRATION SETUP OF SORGHUM SOWING DATES         
 DATA PATH      :                                                               
 TREATMENT  1   :             CSM335_date_1 MZCER047                            
  
!                                                                                                 Soil water content (mm3/mm3) by soil depth (cm):
!                                                                                                 0-5    5-15   15-30   30-45   45-60
@YEAR DOY   DAS  SWTD  SWXD   ROFC   DRNC   PREC  IR#C  IRRC  DTWT    MWTD  TDFD  TDFC   ROFD    SW1D    SW2D    SW3D    SW4D    SW5D    
 2015 174     0    78    32      0      0      0     0     0     0    0.00   0.0   0.0   0.00   0.130   0.130   0.130   0.130   0.130
 2015 175     1    99    54      0      0     23     0     0    30    0.00   0.0   0.0   0.00   0.336   0.242   0.130   0.130   0.130
 2015 176     2    95    50      0      0     23     0     0    60    0.00   0.0   0.0   0.00   0.264   0.247   0.127   0.128   0.128
 2015 177     3    94    48      0      0     23     0     0    60    0.00   0.0   0.0   0.00   0.242   0.246   0.127   0.128   0.128
 2015 178     4    97    52      0      0     30     0     0    60    0.00   0.0   0.0   0.00   0.295   0.263   0.124   0.126   0.126
 2015 179     5    93    48      0      0     30     0     0    60    0.00   0.0   0.0   0.00   0.250   0.255   0.121   0.123   0.125
 2015 180     6    92    47      0      0     30     0     0    60    0.00   0.0   0.0   0.00   0.229   0.254   0.120   0.123   0.125
 2015 181     7    91    45      0      0     30     0     0    60    0.00   0.0   0.0   0.00   0.210   0.253   0.120   0.123   0.125
 2015 182     8    92    46      0      0     32     0     0    60    0.00   0.0   0.0   0.00   0.228   0.251   0.120   0.123   0.125
 2015 183     9   116    70      0      0     58     0     0    60    0.00   0.0   0.0   0.00   0.340   0.339   0.184   0.122   0.124
 2015 184    10   112    66      0      0     58     0     0    60    0.00   0.0   0.0   0.00   0.271   0.291   0.216   0.121   0.123
 2015 185    11   107    61      0      0     58     0     0    60    0.00   0.0   0.0   0.00   0.235   0.270   0.214   0.119   0.121
 2015 186    12   123    77      0      0     79     0     0    60    0.00   0.0   0.0   0.00   0.316   0.320   0.264   0.117   0.119
 2015 187    13   117    72      0      0     79     0     0    60    0.00   0.0   0.0   0.00   0.253   0.280   0.272   0.122   0.118
 2015 188    14   124    79      0      0     91     0     0    60    0.00   0.0   0.0   0.00   0.313   0.292   0.280   0.132   0.116
 2015 189    15   123    77      0      0     95     0     0    60    0.00   0.0   0.0   0.00   0.292   0.282   0.279   0.140   0.115
 2015 190    16   134    89      0      0    111     0     0    60    0.00   0.0   0.0   0.00   0.319   0.318   0.294   0.169   0.114
 2015 191    17   130    85      0      0    113     0     0    60    0.00   0.0   0.0   0.00   0.271   0.287   0.286   0.188   0.112
 2015 192    18   124    79      0      0    113     0     0    60    0.00   0.0   0.0   0.00   0.230   0.265   0.273   0.191   0.111
 2015 193    19   157   112      0      0    148     0     0    60    0.00   0.0   0.0   0.00   0.344   0.341   0.329   0.267   0.111
 2015 194    20   152   106      0      0    148     0     0    60    0.00   0.0   0.0   0.00   0.269   0.289   0.291   0.275   0.162
 2015 195    21   146   100      0      0    148     0     0    60    0.00   0.0   0.0   0.00   0.234   0.268   0.275   0.274   0.165
 2015 196    22   143    98      0      0    148     0     0    60    0.00   0.0   0.0   0.00   0.209   0.262   0.272   0.273   0.165
 2015 197    23   140    95      0      0    148     0     0    60    0.00   0.0   0.0   0.00   0.185   0.256   0.269   0.271   0.164
 2015 198    24   138    92      0      0    148     0     0    60    0.00   0.0   0.0   0.00   0.164   0.251   0.266   0.269   0.163
 2015 199    25   135    89      0      0    148     0     0    60    0.00   0.0   0.0   0.00   0.143   0.244   0.261   0.266   0.162
 2015 200    26   132    86      0      0    148     0     0    60    0.00   0.0   0.0   0.00   0.124   0.237   0.257   0.263   0.161
 2015 201    27   206   160      0     33    257     0     0    54    0.00   0.0   0.0   0.00   0.347   0.340   0.342   0.343   0.345
 2015 202    28   190   145      0     45    257     0     0    55    0.00   0.0   0.0   0.00   0.295   0.303   0.312   0.324   0.332
 2015 203    29   172   126      0     58    257     0     0    58    0.00   0.0   0.0   0.00   0.262   0.277   0.285   0.292   0.297
 2015 204    30   163   118      0     61    257     0     0    60    0.00   0.0   0.0   0.00   0.237   0.264   0.273   0.278   0.282
 2015 205    31   158   113      0     61    257     0     0    60    0.00   0.0   0.0   0.00   0.217   0.252   0.264   0.272   0.278
 2015 206    32   155   109      0     61    258     0     0    60    0.00   0.0   0.0   0.00   0.205   0.245   0.259   0.268   0.275
 2015 207    33   153   108      0     61    258     0     0    60    0.00   0.0   0.0   0.00   0.199   0.240   0.256   0.266   0.274
 2015 208    34   156   110      0     61    263     0     0    60    0.00   0.0   0.0   0.00   0.269   0.239   0.253   0.264   0.272
 2015 209    35   152   107      0     61    264     0     0    60    0.00   0.0   0.0   0.00   0.252   0.233   0.248   0.260   0.269
 2015 210    36   148   102      0     61    264     0     0    60    0.00   0.0   0.0   0.00   0.222   0.225   0.242   0.255   0.266
 2015 211    37   144    98      0     61    264     0     0    60    0.00   0.0   0.0   0.00   0.196   0.217   0.235   0.250   0.262
 2015 212    38   139    93      0     61    264     0     0    60    0.00   0.0   0.0   0.00   0.170   0.208   0.228   0.244   0.257
 2015 213    39   134    88      0     61    264     0     0    60    0.00   0.0   0.0   0.00   0.147   0.198   0.220   0.239   0.253
 2015 214    40   148   103      0     61    282     0     0    60    0.00   0.0   0.0   0.00   0.331   0.269   0.215   0.234   0.249
 2015 215    41   143    98      0     61    282     0     0    60    0.00   0.0   0.0   0.00   0.288   0.271   0.208   0.228   0.244
 2015 216    42   204   159      2    104    392     0     0    54    0.00   0.0   0.0   2.22   0.344   0.338   0.340   0.341   0.342
 2015 217    43   195   150      2    117    399     0     0    55    0.00   0.0   0.0   0.00   0.344   0.321   0.317   0.326   0.331
 2015 218    44   174   128      2    133    399     0     0    59    0.00   0.0   0.0   0.00   0.290   0.286   0.286   0.291   0.294
 2015 219    45   194   149      2    139    427     0     0    58    0.00   0.0   0.0   0.00   0.352   0.343   0.330   0.314   0.306
 2015 220    46   174   128      2    155    427     0     0    60    0.00   0.0   0.0   0.00   0.295   0.296   0.292   0.287   0.285
 2015 221    47   178   132      2    158    438     0     0    59    0.00   0.0   0.0   0.00   0.343   0.309   0.292   0.289   0.286
 2015 222    48   196   151      2    165    467     0     0    58    0.00   0.0   0.0   0.00   0.344   0.338   0.339   0.323   0.307
 2015 223    49   173   128      2    182    467     0     0    60    0.00   0.0   0.0   0.00   0.289   0.292   0.293   0.289   0.284
 2015 224    50   190   144      2    186    492     0     0    58    0.00   0.0   0.0   0.00   0.345   0.339   0.321   0.308   0.297
 2015 225    51   171   125      2    199    492     0     0    60    0.00   0.0   0.0   0.00   0.290   0.292   0.285   0.283   0.280
 2015 226    52   181   135      2    201    505     0     0    59    0.00   0.0   0.0   0.00   0.353   0.321   0.297   0.292   0.286
 2015 227    53   175   130      2    204    506     0     0    59    0.00   0.0   0.0   0.00   0.310   0.298   0.289   0.290   0.287
 2015 228    54   166   120      2    208    506     0     0    60    0.00   0.0   0.0   0.00   0.278   0.277   0.274   0.277   0.277
 2015 229    55   174   129      2    208    517     0     0    60    0.00   0.0   0.0   0.00   0.348   0.304   0.284   0.281   0.278
 2015 230    56   175   130      2    209    523     0     0    60    0.00   0.0   0.0   0.00   0.345   0.303   0.286   0.284   0.280
 2015 231    57   174   129      2    211    526     0     0    60    0.00   0.0   0.0   0.00   0.333   0.297   0.285   0.285   0.282
 2015 232    58   167   121      2    214    526     0     0    60    0.00   0.0   0.0   0.00   0.290   0.279   0.274   0.277   0.278
 2015 233    59   189   143      2    218    555     0     0    59    0.00   0.0   0.0   0.00   0.347   0.340   0.321   0.304   0.292
 2015 234    60   171   125      2    230    555     0     0    60    0.00   0.0   0.0   0.00   0.292   0.293   0.285   0.283   0.279
 2015 235    61   164   118      2    232    555     0     0    60    0.00   0.0   0.0   0.00   0.270   0.274   0.271   0.275   0.275
 2015 236    62   161   116      2    232    555     0     0    60    0.00   0.0   0.0   0.00   0.262   0.268   0.265   0.272   0.272
 2015 237    63   157   111      2    232    555     0     0    60    0.00   0.0   0.0   0.00   0.240   0.260   0.257   0.268   0.268
 2015 238    64   208   162      2    262    637     0     0    54    0.00   0.0   0.0   0.00   0.355   0.345   0.345   0.345   0.346
 2015 239    65   178   133      2    286    637     0     0    58    0.00   0.0   0.0   0.00   0.294   0.295   0.294   0.300   0.301
 2015 240    66   174   128      2    290    640     0     0    59    0.00   0.0   0.0   0.00   0.305   0.286   0.283   0.290   0.293
 2015 241    67   205   159      2    305    690     0     0    54    0.00   0.0   0.0   0.00   0.346   0.339   0.339   0.342   0.343
 2015 242    68   189   143      2    317    690     0     0    56    0.00   0.0   0.0   0.00   0.299   0.302   0.306   0.321   0.329
 2015 243    69   179   133      2    325    692     0     0    57    0.00   0.0   0.0   0.00   0.299   0.287   0.287   0.301   0.311
 2015 244    70   190   144      2    332    712     0     0    58    0.00   0.0   0.0   0.00   0.349   0.341   0.308   0.306   0.307
 2015 245    71   171   126      2    345    712     0     0    60    0.00   0.0   0.0   0.00   0.291   0.293   0.280   0.284   0.285
 2015 246    72   189   143      2    349    738     0     0    59    0.00   0.0   0.0   0.00   0.347   0.340   0.318   0.305   0.296
 2015 247    73   183   137      2    354    741     0     0    58    0.00   0.0   0.0   0.00   0.330   0.309   0.301   0.303   0.299
 2015 248    74   193   148      2    362    763     0     0    57    0.00   0.0   0.0   0.00   0.343   0.338   0.325   0.316   0.308
 2015 249    75   183   137      2    368    763     0     0    58    0.00   0.0   0.0   0.00   0.299   0.302   0.302   0.308   0.307
 2015 250    76   191   145      2    376    786     0     0    57    0.00   0.0   0.0   0.00   0.336   0.333   0.316   0.314   0.309
 2015 251    77   183   137      2    383    789     0     0    58    0.00   0.0   0.0   0.00   0.321   0.304   0.298   0.305   0.305
 2015 252    78   174   129      2    388    789     0     0    58    0.00   0.0   0.0   0.00   0.289   0.287   0.285   0.293   0.297
 2015 253    79   164   119      2    392    789     0     0    60    0.00   0.0   0.0   0.00   0.262   0.270   0.269   0.278   0.281
 2015 254    80   185   140      2    395    818     0     0    59    0.00   0.0   0.0   0.00   0.339   0.336   0.311   0.298   0.290
 2015 255    81   175   130      2    399    818     0     0    59    0.00   0.0   0.0   0.00   0.285   0.296   0.292   0.295   0.291
 2015 256    82   166   120      2    403    818     0     0    60    0.00   0.0   0.0   0.00   0.261   0.275   0.274   0.280   0.279
 2015 257    83   162   116      2    403    818     0     0    60    0.00   0.0   0.0   0.00   0.235   0.269   0.269   0.277   0.277
 2015 258    84   163   118      2    403    824     0     0    60    0.00   0.0   0.0   0.00   0.279   0.276   0.264   0.274   0.274
 2015 259    85   159   113      2    403    824     0     0    60    0.00   0.0   0.0   0.00   0.250   0.268   0.256   0.270   0.270
 2015 260    86   164   119      2    403    833     0     0    60    0.00   0.0   0.0   0.00   0.336   0.284   0.262   0.266   0.267
 2015 261    87   159   113      2    403    833     0     0    60    0.00   0.0   0.0   0.00   0.280   0.270   0.264   0.260   0.262
 2015 262    88   155   109      2    403    833     0     0    60    0.00   0.0   0.0   0.00   0.252   0.264   0.258   0.257   0.259
 2015 263    89   167   122      2    403    850     0     0    60    0.00   0.0   0.0   0.00   0.337   0.310   0.279   0.263   0.255
 2015 264    90   175   130      2    403    861     0     0    60    0.00   0.0   0.0   0.00   0.340   0.328   0.295   0.282   0.261
 2015 265    91   171   126      2    403    862     0     0    60    0.00   0.0   0.0   0.00   0.294   0.296   0.287   0.286   0.273
 2015 266    92   164   118      2    404    862     0     0    60    0.00   0.0   0.0   0.00   0.263   0.274   0.272   0.276   0.275
 2015 267    93   159   114      2    404    862     0     0    60    0.00   0.0   0.0   0.00   0.235   0.266   0.264   0.272   0.271
 2015 268    94   156   110      2    404    863     0     0    60    0.00   0.0   0.0   0.00   0.220   0.259   0.256   0.268   0.268
 2015 269    95   153   108      2    404    865     0     0    60    0.00   0.0   0.0   0.00   0.237   0.251   0.248   0.264   0.264
 2015 270    96   149   103      2    404    865     0     0    60    0.00   0.0   0.0   0.00   0.211   0.244   0.240   0.260   0.261
 2015 271    97   158   112      2    404    877     0     0    60    0.00   0.0   0.0   0.00   0.343   0.278   0.239   0.256   0.258
 2015 272    98   153   108      2    404    877     0     0    60    0.00   0.0   0.0   0.00   0.292   0.276   0.237   0.250   0.253
 2015 273    99   156   111      2    404    884     0     0    60    0.00   0.0   0.0   0.00   0.332   0.287   0.245   0.247   0.250
 2015 274   100   150   105      2    404    884     0     0    60    0.00   0.0   0.0   0.00   0.275   0.269   0.246   0.240   0.245
 2015 275   101   146   101      2    404    886     0     0    60    0.00   0.0   0.0   0.00   0.271   0.266   0.235   0.234   0.239
 2015 276   102   142    97      2    404    886     0     0    60    0.00   0.0   0.0   0.00   0.244   0.259   0.228   0.230   0.236
 2015 277   103   165   120      2    404    912     0     0    60    0.00   0.0   0.0   0.00   0.345   0.340   0.285   0.243   0.234
 2015 278   104   160   114      2    404    912     0     0    60    0.00   0.0   0.0   0.00   0.283   0.292   0.272   0.274   0.232
 2015 279   105   169   124      2    404    926     0     0    60    0.00   0.0   0.0   0.00   0.338   0.315   0.286   0.282   0.238
 2015 280   106   165   119      2    404    926     0     0    60    0.00   0.0   0.0   0.00   0.284   0.284   0.274   0.276   0.263
 2015 281   107   159   114      2    404    926     0     0    60    0.00   0.0   0.0   0.00   0.261   0.270   0.266   0.270   0.258
 2015 282   108   155   109      2    404    926     0     0    60    0.00   0.0   0.0   0.00   0.235   0.262   0.258   0.266   0.255
 2015 283   109   173   127      2    404    948     0     0    60    0.00   0.0   0.0   0.00   0.338   0.328   0.286   0.278   0.255
 2015 284   110   177   132      2    404    959     0     0    60    0.00   0.0   0.0   0.00   0.331   0.325   0.295   0.288   0.272
 2015 285   111   167   121      2    410    959     0     0    60    0.00   0.0   0.0   0.00   0.279   0.287   0.276   0.277   0.275
 2015 286   112   161   115      2    410    959     0     0    60    0.00   0.0   0.0   0.00   0.256   0.269   0.267   0.270   0.270
 2015 287   113   156   111      2    410    959     0     0    60    0.00   0.0   0.0   0.00   0.229   0.262   0.259   0.266   0.266
 2015 288   114   152   106      2    410    959     0     0    60    0.00   0.0   0.0   0.00   0.209   0.254   0.251   0.261   0.262
 2015 289   115   148   102      2    410    959     0     0    60    0.00   0.0   0.0   0.00   0.186   0.247   0.243   0.257   0.259
 2015 290   116   148   103      2    410    964     0     0    60    0.00   0.0   0.0   0.00   0.258   0.239   0.235   0.252   0.255
 2015 291   117   144    99      2    410    964     0     0    60    0.00   0.0   0.0   0.00   0.232   0.233   0.228   0.249   0.252
 2015 292   118   140    94      2    410    964     0     0    60    0.00   0.0   0.0   0.00   0.207   0.225   0.221   0.244   0.248
 2015 293   119   136    91      2    410    964     0     0    60    0.00   0.0   0.0   0.00   0.186   0.219   0.214   0.241   0.245
 2015 294   120   134    89      2    410    966     0     0    60    0.00   0.0   0.0   0.00   0.206   0.213   0.207   0.236   0.242
 2015 295   121   131    85      2    410    966     0     0    60    0.00   0.0   0.0   0.00   0.185   0.207   0.201   0.233   0.239
 2015 296   122   127    81      2    410    966     0     0    60    0.00   0.0   0.0   0.00   0.165   0.200   0.193   0.228   0.235
 2015 297   123   123    77      2    410    966     0     0    60    0.00   0.0   0.0   0.00   0.147   0.192   0.185   0.224   0.232
 2015 298   124   119    73      2    410    966     0     0    60    0.00   0.0   0.0   0.00   0.130   0.186   0.178   0.219   0.228
 2015 299   125   115    70      2    410    966     0     0    60    0.00   0.0   0.0   0.00   0.116   0.179   0.171   0.215   0.225
 2015 300   126   112    66      2    410    966     0     0    60    0.00   0.0   0.0   0.00   0.105   0.173   0.164   0.211   0.221
 2015 301   127   109    63      2    410    966     0     0    60    0.00   0.0   0.0   0.00   0.097   0.166   0.156   0.206   0.218
 2015 302   128   118    73      2    410    979     0     0    60    0.00   0.0   0.0   0.00   0.301   0.182   0.149   0.202   0.215
 2015 303   129   112    66      2    410    979     0     0    60    0.00   0.0   0.0   0.00   0.258   0.177   0.139   0.195   0.209
 2015 304   130   109    63      2    410    979     0     0    60    0.00   0.0   0.0   0.00   0.235   0.171   0.134   0.192   0.206
 2015 305   131   106    60      2    410    979     0     0    60    0.00   0.0   0.0   0.00   0.212   0.167   0.129   0.189   0.204
 2015 306   132   102    56      2    410    979     0     0    60    0.00   0.0   0.0   0.00   0.190   0.161   0.122   0.185   0.201
 2015 307   133    98    52      2    410    979     0     0    60    0.00   0.0   0.0   0.00   0.169   0.154   0.116   0.180   0.197
 2015 308   134    94    48      2    410    979     0     0    60    0.00   0.0   0.0   0.00   0.152   0.146   0.112   0.175   0.193
 2015 309   135    91    45      2    410    979     0     0    60    0.00   0.0   0.0   0.00   0.134   0.138   0.110   0.169   0.188
 2015 310   136    88    42      2    410    980     0     0    60    0.00   0.0   0.0   0.00   0.122   0.131   0.108   0.164   0.184
 2015 311   137    85    39      2    410    980     0     0    60    0.00   0.0   0.0   0.00   0.112   0.123   0.106   0.159   0.180
 2015 312   138    82    36      2    410    980     0     0    60    0.00   0.0   0.0   0.00   0.106   0.116   0.104   0.153   0.175
 2015 313   139    78    33      2    410    980     0     0    60    0.00   0.0   0.0   0.00   0.099   0.111   0.102   0.144   0.168
 2015 314   140    75    29      2    410    980     0     0    60    0.00   0.0   0.0   0.00   0.091   0.107   0.101   0.135   0.161
 2015 315   141    72    26      2    410    980     0     0    60    0.00   0.0   0.0   0.00   0.086   0.105   0.100   0.127   0.155
 2015 316   142    69    23      2    410    980     0     0    60    0.00   0.0   0.0   0.00   0.080   0.103   0.098   0.119   0.148
 2015 317   143    66    20      2    410    980     0     0    60    0.00   0.0   0.0   0.00   0.075   0.101   0.097   0.112   0.138
 2015 318   144    63    17      2    410    980     0     0    60    0.00   0.0   0.0   0.00   0.070   0.098   0.095   0.108   0.125
 2015 319   145    59    14      2    410    980     0     0    60    0.00   0.0   0.0   0.00   0.066   0.096   0.094   0.104   0.111
 2015 320   146    56    11      2    410    980     0     0    60    0.00   0.0   0.0   0.00   0.062   0.093   0.091   0.099   0.103
 2015 321   147    53     8      2    410    980     0     0    60    0.00   0.0   0.0   0.00   0.058   0.088   0.087   0.093   0.096
