*Soil Inorganic Nitrogen daily output file

*DSSAT Cropping System Model Ver. 4.7.2.000 -release      OCT 15, 2021; 17:59:33
                                                                                
*RUN   1        :             CSM335_date_1 MZCER047 ITSA1301    1              
 MODEL          : MZCER047 - Maize                                              
 EXPERIMENT     : ITSA1301 SG CALIBRATION SETUP OF SORGHUM SOWING DATES         
 DATA PATH      :                                                               
 TREATMENT  1   :             CSM335_date_1 MZCER047                            
  
!                                                    NO3 (ppm) by soil depth (cm):           NH4 (ppm) by soil depth (cm):
!                                                     0-5    5-15   15-30   30-45   45-60     0-5    5-15   15-30   30-45   45-60
@YEAR DOY   DAS  NAPC  NI#M    NIAD   NITD   NHTD    NI1D    NI2D    NI3D    NI4D    NI5D    NH1D    NH2D    NH3D    NH4D    NH5D    NMNC    NITC    NDNC    NIMC    AMLC   NNMNC    NUCM    NLCC    TDFC
 2015 174     0     0     0    52.1   47.0    5.0    5.60    5.60    5.60    5.60    5.60    0.60    0.60    0.60    0.60    0.60    0.00    0.00    0.00    0.00    0.00    0.00    0.00    0.00    0.00
 2015 175     1     0     0    52.9   48.1    4.8    2.18    7.51    5.73    5.73    5.72    0.72    0.65    0.65    0.47    0.48    0.99    1.11    0.00    0.14    0.00    0.85    0.00    0.00    0.00
 2015 176     2     0     0    54.5   49.2    5.3    2.20    7.76    5.87    5.83    5.82    1.22    1.03    0.69    0.38    0.38    2.87    2.16    0.00    0.41    0.00    2.46    0.00    0.00    0.00
 2015 177     3     0     1    56.2   50.4    5.7    3.82    7.86    5.88    5.81    5.82    1.58    1.31    0.71    0.30    0.31    4.78    3.42    0.00    0.68    0.00    4.10    0.00    0.00    0.00
 2015 178     4     0     1    57.7   51.8    5.9    3.58    8.55    6.02    5.87    5.88    1.74    1.50    0.73    0.24    0.25    6.56    4.77    0.00    0.94    0.00    5.62    0.00    0.00    0.00
 2015 179     5     0     1    59.3   53.1    6.1    5.25    8.80    6.02    5.82    5.85    1.99    1.69    0.74    0.20    0.20    8.45    6.13    0.00    1.22    0.00    7.24    0.00    0.00    0.00
 2015 180     6     0     1    60.7   54.6    6.2    7.21    9.00    6.02    5.76    5.81    2.02    1.79    0.74    0.16    0.17   10.17    7.57    0.00    1.47    0.00    8.70    0.00    0.00    0.00
 2015 181     7     0     1    62.1   56.0    6.1    7.86    9.42    6.15    5.79    5.84    1.98    1.86    0.74    0.13    0.14   11.82    9.04    0.00    1.72    0.00   10.11    0.00    0.00    0.00
 2015 182     8     0     1    63.5   57.5    6.0    8.51    9.86    6.29    5.81    5.87    1.89    1.89    0.73    0.11    0.12   13.40   10.50    0.00    1.95    0.00   11.45    0.00    0.00    0.00
 2015 183     9     0     1    64.9   58.9    5.9    3.79    9.45    8.78    5.83    5.89    1.87    1.91    0.73    0.09    0.10   15.01   11.95    0.00    2.19    0.00   12.82    0.00    0.00    0.00
 2015 184    10     0     1    66.5   60.0    6.5    4.33    8.55    9.75    5.81    5.87    2.08    2.07    0.87    0.08    0.08   16.97   13.03    0.00    2.48    0.00   14.49    0.00    0.00    0.00
 2015 185    11     0     1    68.5   61.5    7.0    6.10    8.66    9.90    5.74    5.82    2.14    2.15    1.05    0.07    0.07   19.27   14.48    0.00    2.83    0.00   16.45    0.00    0.00    0.00
 2015 186    12     0     1    70.3   63.1    7.2    4.80    8.23   11.54    5.66    5.76    2.08    2.15    1.18    0.06    0.06   21.43   16.11    0.00    3.15    0.00   18.28    0.00    0.00    0.00
 2015 187    13     0     1    72.0   64.2    7.8    6.14    7.77   11.78    5.88    5.69    2.17    2.22    1.40    0.05    0.05   23.88   17.52    0.00    3.55    0.00   20.32    0.35    0.00    0.00
 2015 188    14     0     1    73.6   65.5    8.1    5.80    7.96   11.99    6.35    5.63    2.10    2.20    1.58    0.04    0.05   26.43   19.29    0.00    3.97    0.00   22.46    0.90    0.00    0.00
 2015 189    15     0     1    75.3   66.9    8.4    6.64    8.06   12.02    6.70    5.56    2.16    2.20    1.74    0.04    0.04   29.11   21.09    0.00    4.42    0.00   24.69    1.38    0.00    0.00
 2015 190    16     0     1    77.0   68.5    8.6    5.38    7.84   12.14    7.95    5.51    2.17    2.18    1.83    0.03    0.04   31.87   23.15    0.00    4.88    0.00   26.99    1.96    0.00    0.00
 2015 191    17     0     1    78.6   69.8    8.8    6.29    7.62   11.87    8.73    5.46    2.22    2.21    1.92    0.03    0.03   34.41   24.94    0.00    5.31    0.00   29.10    2.51    0.00    0.00
 2015 192    18     0     1    80.2   71.3    8.8    8.17    7.87   11.75    8.85    5.40    2.15    2.18    1.97    0.03    0.03   37.03   27.00    0.00    5.74    0.00   31.28    3.11    0.00    0.00
 2015 193    19     0     1    81.4   72.8    8.6    4.51    6.43   11.62   11.92    5.33    2.00    2.10    1.97    0.03    0.03   39.45   29.15    0.00    6.15    0.00   33.30    3.92    0.00    0.00
 2015 194    20     0     1    82.0   73.1    8.9    4.58    5.91   10.25   11.50    7.61    2.09    2.15    2.04    0.03    0.03   41.55   30.47    0.00    6.50    0.00   35.05    5.05    0.00    0.00
 2015 195    21     0     1    83.6   74.7    9.0    6.08    6.26   10.15   11.44    7.77    2.08    2.16    2.08    0.03    0.03   43.89   32.31    0.00    6.86    0.00   37.03    5.37    0.00    0.00
 2015 196    22     0     1    83.1   74.4    8.6    7.44    6.45   10.01   11.01    7.65    1.93    2.05    2.03    0.04    0.03   46.11   34.23    0.00    7.21    0.00   38.91    7.84    0.00    0.00
 2015 197    23     0     1    83.7   75.3    8.4    7.79    6.74   10.26   10.87    7.62    1.80    1.99    2.01    0.04    0.03   48.23   36.10    0.00    7.54    0.00   40.69    9.01    0.00    0.00
 2015 198    24     0     1    83.5   75.4    8.1    8.02    6.92   10.39   10.66    7.55    1.64    1.92    1.97    0.04    0.03   50.22   37.89    0.00    7.85    0.00   42.36   10.86    0.00    0.00
 2015 199    25     0     1    83.5   75.6    7.8    8.26    7.13   10.56   10.47    7.48    1.48    1.85    1.93    0.04    0.03   52.14   39.64    0.00    8.16    0.00   43.98   12.50    0.00    0.00
 2015 200    26     0     1    82.5   75.0    7.5    8.35    7.22   10.59   10.17    7.36    1.33    1.76    1.87    0.04    0.03   54.02   41.38    0.00    8.47    0.00   45.56   15.05    0.00    0.00
 2015 201    27     0     1    66.5   59.4    7.1    0.82    4.25    5.04   10.23    9.89    1.22    1.67    1.81    0.05    0.03   55.83   43.04    0.00    8.76    0.00   47.07   17.34   15.20    0.00
 2015 202    28     0     1    62.5   54.8    7.7    1.09    3.90    4.79    8.91    9.40    1.45    1.79    1.92    0.05    0.03   57.73   44.03    0.00    8.97    0.00   48.76   18.34   19.90    0.00
 2015 203    29     0     1    57.8   49.8    8.0    1.62    3.84    4.65    7.66    8.31    1.61    1.83    1.97    0.05    0.04   59.79   45.37    0.00    9.20    0.00   50.59   20.14   24.58    0.00
 2015 204    30     0     1    56.1   48.1    8.0    2.29    3.95    4.73    7.06    7.70    1.65    1.81    1.96    0.06    0.04   61.95   46.98    0.00    9.43    0.00   52.51   22.71   25.67    0.00
 2015 205    31     0     1    54.7   46.9    7.8    2.95    3.99    4.79    6.61    7.31    1.61    1.75    1.90    0.06    0.05   63.93   48.56    0.00    9.65    0.00   54.27   25.84   25.67    0.00
 2015 206    32     0     1    53.6   46.0    7.6    3.51    4.05    4.86    6.23    6.97    1.55    1.70    1.85    0.06    0.05   65.73   50.07    0.00    9.86    0.00   55.88   28.53   25.67    0.00
 2015 207    33     0     1    52.4   45.1    7.3    3.67    4.13    4.94    5.91    6.66    1.47    1.63    1.79    0.06    0.05   67.50   51.60    0.00   10.05    0.00   57.45   31.28   25.67    0.00
 2015 208    34     0     1    52.6   45.4    7.2    3.84    4.36    5.16    5.76    6.51    1.41    1.59    1.77    0.06    0.05   69.23   53.12    0.00   10.25    0.00   58.98   32.67   25.67    0.00
 2015 209    35     0     1    53.2   46.0    7.2    4.05    4.60    5.42    5.67    6.42    1.51    1.57    1.75    0.06    0.06   70.98   54.58    0.00   10.44    0.00   60.54   33.61   25.67    0.00
 2015 210    36     0     1    52.0   45.1    7.0    4.19    4.63    5.45    5.39    6.14    1.52    1.51    1.68    0.06    0.06   72.60   55.96    0.00   10.63    0.00   61.97   36.22   25.67    0.00
 2015 211    37     0     1    50.4   43.7    6.7    4.28    4.60    5.43    5.09    5.82    1.47    1.44    1.61    0.06    0.06   74.10   57.28    0.00   10.80    0.00   63.30   39.15   25.67    0.00
 2015 212    38     0     1    48.7   42.4    6.4    4.34    4.55    5.38    4.79    5.51    1.38    1.37    1.54    0.06    0.06   75.50   58.55    0.00   10.96    0.00   64.54   42.07   25.67    0.00
 2015 213    39     0     1    46.5   40.5    6.0    4.34    4.44    5.26    4.46    5.14    1.25    1.29    1.46    0.06    0.06   76.82   59.78    0.00   11.11    0.00   65.71   45.50   25.67    0.00
 2015 214    40     0     1    44.2   38.6    5.6    2.27    5.36    5.14    4.13    4.78    1.13    1.20    1.38    0.06    0.06   78.11   61.02    0.00   11.26    0.00   66.86   48.88   25.67    0.00
 2015 215    41     0     1    43.5   37.7    5.7    2.19    5.35    5.18    3.93    4.55    1.30    1.28    1.33    0.06    0.06   79.75   62.18    0.00   11.44    0.00   68.32   51.10   25.67    0.00
 2015 216    42     0     1    33.2   27.4    5.8    0.80    1.51    3.36    4.77    3.65    1.42    1.33    1.26    0.06    0.06   81.41   63.41    0.00   11.61    0.00   69.79   53.98   34.57    0.00
 2015 217    43     0     1    30.9   24.6    6.3    0.78    1.44    2.94    4.08    3.49    1.53    1.44    1.40    0.07    0.06   83.12   64.19    0.00   11.77    0.00   71.35   56.00   36.34    0.00
 2015 218    44     0     1    28.3   21.7    6.7    0.89    1.43    2.65    3.37    3.05    1.60    1.51    1.49    0.07    0.07   84.86   65.13    0.00   11.92    0.00   72.94   58.08   38.45    0.00
 2015 219    45     0     1    26.3   19.6    6.7    0.64    1.20    2.42    3.03    2.88    1.60    1.52    1.52    0.07    0.07   86.78   66.33    0.00   12.09    0.00   74.69   60.99   39.29    0.00
 2015 220    46     0     1    25.6   18.4    7.2    0.76    1.23    2.29    2.69    2.71    1.72    1.63    1.65    0.07    0.07   88.32   67.19    0.00   12.22    0.00   76.10   61.12   41.25    0.00
 2015 221    47     0     1    24.4   17.2    7.1    0.76    1.28    2.22    2.41    2.47    1.68    1.60    1.63    0.08    0.07   90.07   68.35    0.01   12.37    0.00   77.69   63.68   41.55    0.00
 2015 222    48     0     1    23.1   15.9    7.2    0.49    1.00    2.02    2.30    2.43    1.69    1.60    1.63    0.08    0.07   91.75   69.44    0.02   12.52    0.00   79.24   65.68   42.38    0.00
 2015 223    49     0     1    21.1   13.8    7.3    0.62    1.00    1.78    1.88    2.04    1.70    1.62    1.66    0.08    0.07   93.26   70.31    0.06   12.65    0.00   80.62   67.45   43.96    0.00
 2015 224    50     0     1    19.2   12.3    6.9    0.53    0.90    1.64    1.65    1.80    1.60    1.53    1.58    0.08    0.07   95.02   71.48    0.07   12.79    0.00   82.23   70.47   44.37    0.00
 2015 225    51     0     1    18.5   11.4    7.1    0.66    0.94    1.57    1.43    1.58    1.65    1.58    1.62    0.08    0.07   96.62   72.44    0.09   12.93    0.00   83.70   71.67   45.35    0.00
 2015 226    52     0     1    17.3   10.6    6.7    0.66    1.00    1.56    1.25    1.35    1.55    1.49    1.54    0.08    0.07   98.49   73.70    0.09   13.08    0.00   85.41   74.43   45.47    0.00
 2015 227    53     0     1    18.6   11.5    7.1    0.76    1.15    1.77    1.29    1.38    1.67    1.59    1.63    0.08    0.07  100.13   74.79    0.11   13.22    0.00   86.91   74.43   45.64    0.00
 2015 228    54     0     1    18.7   11.6    7.1    0.96    1.29    1.87    1.21    1.27    1.66    1.58    1.63    0.08    0.07  101.83   76.02    0.11   13.37    0.00   88.47   75.60   45.91    0.00
 2015 229    55     0     1    18.5   11.6    6.9    0.91    1.41    1.98    1.15    1.16    1.59    1.52    1.57    0.08    0.07  103.56   77.35    0.11   13.52    0.00   90.05   77.43   45.92    0.00
 2015 230    56     0     1    19.9   12.8    7.2    0.92    1.57    2.26    1.25    1.20    1.69    1.59    1.63    0.08    0.07  105.20   78.54    0.11   13.66    0.00   91.54   77.43   45.98    0.00
 2015 231    57     0     1    20.2   13.1    7.2    0.95    1.64    2.38    1.26    1.17    1.71    1.59    1.63    0.08    0.07  106.78   79.68    0.11   13.80    0.00   92.97   78.49   46.05    0.00
 2015 232    58     0     1    21.5   14.1    7.4    1.14    1.82    2.60    1.33    1.19    1.78    1.63    1.67    0.08    0.07  108.40   80.95    0.11   13.95    0.00   94.45   78.49   46.26    0.00
 2015 233    59     0     1    22.7   15.3    7.4    0.81    1.64    2.85    1.74    1.35    1.79    1.64    1.68    0.08    0.07  110.05   82.41    0.11   14.11    0.00   95.95   78.49   46.49    0.00
 2015 234    60     0     1    23.2   15.5    7.7    0.97    1.65    2.76    1.79    1.41    1.86    1.71    1.73    0.08    0.07  111.44   83.42    0.12   14.24    0.00   97.21   78.49   47.33    0.00
 2015 235    61     0     1    24.5   16.8    7.7    1.36    1.91    3.01    1.82    1.44    1.86    1.72    1.75    0.08    0.07  113.05   84.83    0.12   14.39    0.00   98.66   78.49   47.46    0.00
 2015 236    62     0     1    25.9   18.4    7.6    1.84    2.27    3.34    1.83    1.45    1.81    1.69    1.72    0.08    0.07  114.66   86.41    0.12   14.55    0.00  100.11   78.49   47.46    0.00
 2015 237    63     0     1    27.3   19.9    7.4    2.24    2.62    3.69    1.85    1.46    1.75    1.66    1.68    0.08    0.07  116.21   87.98    0.12   14.71    0.00  101.50   78.49   47.46    0.00
 2015 238    64     0     1    25.6   18.4    7.1    0.70    1.34    2.61    3.17    1.86    1.67    1.61    1.63    0.08    0.07  117.68   89.53    0.12   14.86    0.00  102.82   78.49   50.53    0.00
 2015 239    65     0     1    24.9   17.4    7.5    0.82    1.37    2.43    2.75    1.93    1.75    1.67    1.70    0.08    0.07  118.97   90.40    0.12   14.98    0.00  103.99   78.49   52.38    0.00
 2015 240    66     0     1    25.9   18.4    7.5    1.09    1.63    2.65    2.69    1.97    1.76    1.68    1.72    0.08    0.07  120.49   91.72    0.12   15.13    0.00  105.36   78.49   52.73    0.00
 2015 241    67     0     1    25.4   17.8    7.5    0.61    1.14    2.28    2.71    2.54    1.77    1.68    1.72    0.08    0.07  121.98   93.05    0.12   15.27    0.00  106.71   78.49   54.61    0.00
 2015 242    68     0     1    25.3   17.5    7.7    0.78    1.23    2.25    2.53    2.48    1.82    1.73    1.77    0.08    0.07  123.19   93.94    0.12   15.39    0.00  107.81   78.49   55.81    0.00
 2015 243    69     0     1    25.6   17.9    7.8    1.04    1.46    2.39    2.40    2.39    1.82    1.73    1.78    0.08    0.08  124.55   95.13    0.15   15.51    0.00  109.04   78.49   56.63    0.00
 2015 244    70     0     1    26.2   18.5    7.7    0.87    1.57    2.63    2.46    2.40    1.81    1.72    1.76    0.08    0.08  126.05   96.54    0.17   15.66    0.00  110.39   78.49   57.34    0.00
 2015 245    71     0     1    26.0   18.2    7.8    1.01    1.59    2.63    2.35    2.30    1.86    1.75    1.77    0.08    0.08  127.34   97.61    0.20   15.79    0.00  111.55   78.49   58.71    0.00
 2015 246    72     0     1    26.8   19.1    7.7    0.82    1.52    2.82    2.56    2.44    1.83    1.73    1.74    0.08    0.07  128.80   99.05    0.21   15.93    0.00  112.87   78.49   59.22    0.00
 2015 247    73     0     1    27.3   19.5    7.8    0.93    1.58    2.85    2.59    2.51    1.86    1.76    1.75    0.08    0.07  130.09  100.12    0.23   16.06    0.00  114.03   78.49   59.84    0.00
 2015 248    74     0     1    27.6   19.9    7.7    0.75    1.48    2.87    2.72    2.64    1.87    1.75    1.74    0.08    0.07  131.46  101.38    0.25   16.20    0.00  115.26   78.49   60.74    0.00
 2015 249    75     0     1    27.9   20.1    7.8    0.97    1.57    2.87    2.67    2.66    1.89    1.77    1.75    0.08    0.07  132.73  102.45    0.28   16.33    0.00  116.40   78.49   61.57    0.00
 2015 250    76     0     1    28.2   20.5    7.7    0.84    1.55    2.93    2.77    2.74    1.85    1.75    1.74    0.08    0.07  134.17  103.84    0.30   16.48    0.00  117.69   78.49   62.56    0.00
 2015 251    77     0     1    28.5   20.8    7.7    1.07    1.66    2.97    2.73    2.73    1.86    1.76    1.73    0.08    0.07  135.51  105.03    0.35   16.61    0.00  118.90   78.49   63.40    0.00
 2015 252    78     0     1    29.2   21.6    7.6    1.41    1.92    3.16    2.68    2.69    1.85    1.73    1.71    0.08    0.07  136.97  106.45    0.38   16.76    0.00  120.20   78.49   63.97    0.00
 2015 253    79     0     1    30.1   22.7    7.4    1.87    2.24    3.43    2.63    2.61    1.79    1.68    1.67    0.08    0.07  138.48  108.00    0.39   16.93    0.00  121.55   78.49   64.44    0.00
 2015 254    80     0     1    30.9   23.9    7.1    1.31    2.14    3.72    3.00    2.78    1.69    1.60    1.60    0.07    0.07  139.96  109.65    0.39   17.09    0.00  122.87   78.49   64.89    0.00
 2015 255    81     0     1    31.6   24.5    7.1    1.60    2.21    3.74    3.07    2.86    1.71    1.62    1.59    0.07    0.07  141.34  110.84    0.39   17.24    0.00  124.10   78.49   65.41    0.00
 2015 256    82     0     1    32.4   25.4    7.0    2.22    2.50    3.90    3.00    2.80    1.66    1.59    1.56    0.07    0.07  142.88  112.35    0.40   17.41    0.00  125.46   78.49   66.01    0.00
 2015 257    83     0     1    33.8   27.1    6.7    2.93    2.88    4.21    2.99    2.80    1.57    1.52    1.51    0.07    0.07  144.42  114.00    0.40   17.59    0.00  126.83   78.49   66.01    0.00
 2015 258    84     0     1    35.1   28.7    6.4    3.01    3.38    4.58    3.00    2.82    1.45    1.46    1.45    0.07    0.07  145.90  115.61    0.40   17.76    0.00  128.14   78.49   66.01    0.00
 2015 259    85     0     1    36.4   30.2    6.2    3.41    3.71    4.91    3.02    2.83    1.43    1.41    1.39    0.07    0.06  147.38  117.11    0.40   17.94    0.00  129.44   78.49   66.01    0.00
 2015 260    86     0     1    37.6   31.6    6.0    2.95    4.18    5.39    3.03    2.84    1.37    1.37    1.34    0.07    0.06  148.75  118.54    0.40   18.11    0.00  130.64   78.49   66.01    0.00
 2015 261    87     0     1    38.7   32.8    5.9    3.20    4.32    5.81    3.03    2.85    1.42    1.36    1.30    0.07    0.06  150.09  119.77    0.40   18.29    0.00  131.81   78.49   66.01    0.00
 2015 262    88     0     1    39.9   34.1    5.8    4.03    4.60    5.98    3.02    2.84    1.41    1.33    1.27    0.06    0.06  151.44  121.06    0.40   18.47    0.00  132.97   78.49   66.01    0.00
 2015 263    89     0     1    41.0   35.4    5.6    2.47    4.80    6.67    3.30    2.85    1.35    1.29    1.23    0.06    0.06  152.72  122.33    0.40   18.64    0.00  134.08   78.49   66.01    0.00
 2015 264    90     0     1    42.1   36.5    5.6    2.14    4.40    6.82    3.93    2.99    1.40    1.31    1.23    0.06    0.06  154.08  123.45    0.40   18.84    0.00  135.24   78.49   66.01    0.00
 2015 265    91     0     1    43.3   37.5    5.7    2.41    4.24    6.76    4.23    3.23    1.45    1.34    1.24    0.06    0.06  155.37  124.46    0.40   19.02    0.00  136.35   78.49   66.01    0.00
 2015 266    92     0     1    44.2   38.4    5.7    3.08    4.37    6.74    4.27    3.36    1.44    1.34    1.24    0.06    0.06  156.77  125.65    0.40   19.22    0.00  137.55   78.49   66.27    0.00
 2015 267    93     0     1    45.4   39.8    5.6    3.99    4.69    6.89    4.24    3.35    1.39    1.30    1.22    0.06    0.06  158.16  126.99    0.40   19.42    0.00  138.74   78.49   66.27    0.00
 2015 268    94     0     1    46.5   41.1    5.4    4.40    4.98    7.18    4.25    3.36    1.30    1.26    1.18    0.06    0.06  159.50  128.33    0.40   19.62    0.00  139.88   78.49   66.27    0.00
 2015 269    95     0     1    47.6   42.4    5.2    4.79    5.26    7.45    4.26    3.38    1.20    1.21    1.14    0.06    0.06  160.76  129.62    0.40   19.81    0.00  140.95   78.49   66.27    0.00
 2015 270    96     0     1    48.7   43.7    5.0    5.17    5.54    7.72    4.28    3.39    1.15    1.15    1.10    0.06    0.06  162.02  130.91    0.40   20.01    0.00  142.02   78.49   66.27    0.00
 2015 271    97     0     1    49.7   45.0    4.7    3.95    6.44    8.11    4.29    3.40    1.07    1.09    1.05    0.06    0.06  163.24  132.18    0.40   20.20    0.00  143.04   78.49   66.27    0.00
 2015 272    98     0     1    50.7   46.1    4.7    4.15    6.66    8.43    4.28    3.40    1.15    1.09    1.01    0.06    0.05  164.52  133.30    0.40   20.40    0.00  144.12   78.49   66.27    0.00
 2015 273    99     0     1    51.8   47.2    4.6    4.27    6.85    8.84    4.25    3.39    1.18    1.09    0.97    0.06    0.05  165.79  134.41    0.40   20.61    0.00  145.18   78.49   66.27    0.00
 2015 274   100     0     1    52.8   48.2    4.6    4.57    6.81    9.25    4.24    3.39    1.23    1.11    0.96    0.05    0.05  167.02  135.41    0.40   20.82    0.00  146.20   78.49   66.27    0.00
 2015 275   101     0     1    53.9   49.3    4.6    5.47    7.20    9.26    4.20    3.37    1.22    1.09    0.95    0.05    0.05  168.26  136.50    0.40   21.03    0.00  147.23   78.49   66.27    0.00
 2015 276   102     0     1    54.8   50.3    4.5    6.70    7.43    9.26    4.16    3.36    1.20    1.08    0.92    0.05    0.05  169.45  137.57    0.40   21.23    0.00  148.21   78.49   66.27    0.00
 2015 277   103     0     1    55.8   51.4    4.4    2.92    6.81   10.73    4.87    3.37    1.14    1.05    0.89    0.05    0.05  170.58  138.64    0.40   21.43    0.00  149.14   78.49   66.27    0.00
 2015 278   104     0     1    56.8   52.2    4.6    3.12    6.16   10.09    6.18    3.44    1.21    1.10    0.94    0.05    0.05  171.83  139.45    0.40   21.67    0.00  150.15   78.49   66.27    0.00
 2015 279   105     0     1    57.9   53.3    4.6    2.81    5.83   10.17    6.71    3.67    1.22    1.11    0.95    0.05    0.05  173.19  140.51    0.40   21.92    0.00  151.27   78.49   66.27    0.00
 2015 280   106     0     1    58.9   54.2    4.7    3.23    5.58    9.70    6.93    4.38    1.26    1.14    0.98    0.05    0.05  174.49  141.45    0.40   22.16    0.00  152.34   78.49   66.27    0.00
 2015 281   107     0     1    60.0   55.3    4.8    4.06    5.83    9.84    6.88    4.37    1.26    1.14    0.99    0.05    0.05  175.84  142.53    0.40   22.39    0.00  153.44   78.49   66.27    0.00
 2015 282   108     0     1    61.1   56.4    4.7    5.07    6.15    9.90    6.81    4.35    1.21    1.11    0.99    0.05    0.05  177.11  143.66    0.40   22.62    0.00  154.49   78.49   66.27    0.00
 2015 283   109     0     1    62.1   57.6    4.5    2.52    5.97   10.54    7.56    4.49    1.14    1.08    0.97    0.05    0.05  178.35  144.81    0.40   22.85    0.00  155.50   78.49   66.27    0.00
 2015 284   110     0     1    63.2   58.5    4.7    2.28    5.34   10.17    8.21    5.14    1.19    1.11    0.99    0.05    0.05  179.65  145.73    0.40   23.10    0.00  156.55   78.49   66.27    0.00
 2015 285   111     0     1    62.7   57.9    4.8    2.88    5.11    9.48    8.13    5.60    1.24    1.14    1.01    0.05    0.05  180.95  146.67    0.40   23.34    0.00  157.61   78.49   67.77    0.00
 2015 286   112     0     1    63.9   59.1    4.8    3.78    5.40    9.65    8.06    5.58    1.21    1.13    1.00    0.05    0.05  182.37  147.88    0.40   23.58    0.00  158.78   78.49   67.77    0.00
 2015 287   113     0     1    65.0   60.3    4.6    4.85    5.77    9.75    7.97    5.55    1.16    1.10    0.99    0.05    0.05  183.72  149.11    0.40   23.82    0.00  159.89   78.49   67.77    0.00
 2015 288   114     0     1    66.0   61.5    4.5    5.24    6.04    9.99    7.98    5.56    1.08    1.06    0.96    0.05    0.05  184.98  150.31    0.40   24.06    0.00  160.92   78.49   67.77    0.00
 2015 289   115     0     1    67.0   62.7    4.3    5.62    6.29   10.23    7.99    5.57    0.99    1.01    0.93    0.05    0.05  186.18  151.48    0.40   24.28    0.00  161.90   78.49   67.77    0.00
 2015 290   116     0     1    67.9   63.8    4.1    5.99    6.54   10.46    8.00    5.58    0.89    0.97    0.90    0.05    0.05  187.33  152.61    0.40   24.50    0.00  162.83   78.49   67.77    0.00
 2015 291   117     0     1    68.9   64.9    3.9    6.33    6.77   10.69    8.01    5.60    0.90    0.92    0.86    0.05    0.05  188.51  153.71    0.40   24.72    0.00  163.78   78.49   67.77    0.00
 2015 292   118     0     1    69.8   66.0    3.8    6.69    7.00   10.90    8.02    5.61    0.88    0.88    0.82    0.05    0.05  189.62  154.78    0.40   24.94    0.00  164.68   78.49   67.77    0.00
 2015 293   119     0     1    70.6   67.0    3.6    7.04    7.21   11.12    8.03    5.62    0.82    0.83    0.78    0.05    0.05  190.68  155.82    0.40   25.15    0.00  165.53   78.49   67.77    0.00
 2015 294   120     0     1    71.4   68.0    3.4    7.39    7.41   11.31    8.04    5.63    0.76    0.79    0.74    0.04    0.05  191.67  156.79    0.40   25.35    0.00  166.32   78.49   67.77    0.00
 2015 295   121     0     1    72.2   68.9    3.2    7.71    7.60   11.49    8.05    5.64    0.74    0.75    0.70    0.04    0.04  192.63  157.71    0.40   25.55    0.00  167.08   78.49   67.77    0.00
 2015 296   122     0     1    72.9   69.8    3.1    8.03    7.77   11.66    8.06    5.65    0.70    0.72    0.67    0.04    0.04  193.52  158.57    0.40   25.73    0.00  167.79   78.49   67.77    0.00
 2015 297   123     0     1    73.5   70.6    2.9    8.34    7.93   11.83    8.06    5.66    0.65    0.68    0.63    0.04    0.04  194.35  159.39    0.40   25.90    0.00  168.45   78.49   67.77    0.00
 2015 298   124     0     1    74.1   71.4    2.7    8.63    8.08   11.98    8.07    5.67    0.60    0.65    0.59    0.04    0.04  195.11  160.16    0.40   26.06    0.00  169.05   78.49   67.77    0.00
 2015 299   125     0     1    74.7   72.1    2.6    8.89    8.23   12.12    8.08    5.68    0.56    0.61    0.56    0.04    0.04  195.82  160.88    0.40   26.21    0.00  169.61   78.49   67.77    0.00
 2015 300   126     0     1    75.2   72.7    2.4    9.13    8.36   12.25    8.08    5.69    0.52    0.58    0.52    0.04    0.04  196.47  161.54    0.40   26.35    0.00  170.12   78.49   67.77    0.00
 2015 301   127     0     1    75.7   73.4    2.3    9.35    8.48   12.37    8.09    5.70    0.50    0.54    0.49    0.04    0.04  197.08  162.17    0.40   26.49    0.00  170.60   78.49   67.77    0.00
 2015 302   128     0     1    76.1   74.0    2.1    6.61   10.08   12.49    8.10    5.71    0.47    0.51    0.45    0.04    0.04  197.65  162.76    0.40   26.61    0.00  171.04   78.49   67.77    0.00
 2015 303   129     0     1    76.7   74.5    2.2    6.61   10.31   12.59    8.10    5.72    0.62    0.50    0.42    0.03    0.04  198.39  163.32    0.40   26.76    0.00  171.63   78.49   67.77    0.00
 2015 304   130     0     1    77.2   75.1    2.1    8.55   10.49   12.26    7.98    5.67    0.69    0.49    0.39    0.03    0.04  199.07  163.89    0.40   26.89    0.00  172.18   78.49   67.77    0.00
 2015 305   131     0     1    77.7   75.7    2.1    8.90   10.59   12.33    7.99    5.68    0.72    0.47    0.37    0.03    0.04  199.70  164.46    0.40   27.02    0.00  172.68   78.49   67.77    0.00
 2015 306   132     0     1    78.2   76.2    2.0    9.25   10.67   12.40    7.99    5.69    0.71    0.45    0.35    0.03    0.03  200.27  164.98    0.40   27.13    0.00  173.13   78.49   67.77    0.00
 2015 307   133     0     1    78.6   76.7    1.9    9.60   10.75   12.45    8.00    5.70    0.68    0.43    0.34    0.03    0.03  200.77  165.47    0.40   27.23    0.00  173.54   78.49   67.77    0.00
 2015 308   134     0     1    78.9   77.1    1.8    9.94   10.82   12.49    8.00    5.70    0.63    0.41    0.32    0.03    0.03  201.22  165.93    0.40   27.32    0.00  173.89   78.49   67.77    0.00
 2015 309   135     0     1    79.3   77.5    1.7   10.27   10.88   12.53    8.00    5.71    0.58    0.39    0.30    0.03    0.03  201.62  166.35    0.40   27.40    0.00  174.21   78.49   67.77    0.00
 2015 310   136     0     1    79.5   77.9    1.6   10.56   10.93   12.57    8.01    5.72    0.54    0.37    0.29    0.03    0.03  201.97  166.72    0.40   27.48    0.00  174.50   78.49   67.77    0.00
 2015 311   137     0     1    79.8   78.3    1.5   10.84   10.97   12.60    8.01    5.73    0.51    0.36    0.27    0.03    0.03  202.30  167.07    0.40   27.54    0.00  174.76   78.49   67.77    0.00
 2015 312   138     0     1    80.0   78.6    1.5   11.10   11.00   12.63    8.01    5.73    0.48    0.34    0.26    0.02    0.03  202.60  167.38    0.40   27.61    0.00  174.99   78.49   67.77    0.00
 2015 313   139     0     1    80.2   78.8    1.4   11.35   11.01   12.66    8.02    5.74    0.46    0.32    0.25    0.02    0.03  202.86  167.65    0.40   27.66    0.00  175.20   78.49   67.77    0.00
 2015 314   140     0     1    80.4   79.1    1.3   11.59   11.03   12.69    8.02    5.75    0.44    0.30    0.24    0.02    0.03  203.10  167.91    0.40   27.71    0.00  175.38   78.49   67.77    0.00
 2015 315   141     0     1    80.6   79.3    1.3   11.82   11.04   12.71    8.02    5.75    0.42    0.28    0.23    0.02    0.03  203.31  168.15    0.40   27.76    0.00  175.56   78.49   67.77    0.00
 2015 316   142     0     1    80.8   79.6    1.2   12.04   11.04   12.73    8.02    5.76    0.40    0.27    0.22    0.02    0.02  203.51  168.37    0.40   27.80    0.00  175.71   78.49   67.77    0.00
 2015 317   143     0     1    80.9   79.8    1.1   12.25   11.05   12.75    8.02    5.76    0.38    0.25    0.21    0.02    0.02  203.70  168.57    0.40   27.84    0.00  175.86   78.49   67.77    0.00
 2015 318   144     0     1    81.0   79.9    1.1   12.45   11.04   12.77    8.02    5.77    0.36    0.24    0.20    0.02    0.02  203.87  168.76    0.40   27.88    0.00  175.99   78.49   67.77    0.00
 2015 319   145     0     1    81.1   80.1    1.0   12.64   11.04   12.79    8.02    5.77    0.34    0.23    0.19    0.02    0.02  204.02  168.93    0.40   27.91    0.00  176.11   78.49   67.77    0.00
 2015 320   146     0     1    81.2   80.3    1.0   12.83   11.03   12.80    8.02    5.77    0.32    0.21    0.18    0.02    0.02  204.16  169.09    0.40   27.94    0.00  176.21   78.49   67.77    0.00
 2015 321   147     0     1    81.3   80.4    0.9   13.01   11.02   12.82    8.02    5.77    0.30    0.20    0.17    0.01    0.02  204.26  169.23    0.40   27.97    0.00  176.30   78.49   67.77    0.00
