*SOIL TEMPERATURE OUTPUT FILE (DAILY)

*DSSAT Cropping System Model Ver. 4.7.2.000 -release      OCT 15, 2021; 17:59:33
                                                                                
*RUN   1        :             CSM335_date_1 MZCER047 ITSA1301    1              
 MODEL          : MZCER047 - Maize                                              
 EXPERIMENT     : ITSA1301 SG CALIBRATION SETUP OF SORGHUM SOWING DATES         
 DATA PATH      :                                                               
 TREATMENT  1   :             CSM335_date_1 MZCER047                            
  
! TAV  =    27.7
! TAMP =     5.2
!               Temperature (oC) by soil depth (cm):
!               Surface     0-5    5-15   15-30   30-45   45-60
@YEAR DOY   DAS    TS0D    TS1D    TS2D    TS3D    TS4D    TS5D    
 2015 175     1    33.5    33.4    33.1    32.7    32.3    31.9
 2015 176     2    33.3    33.3    33.1    32.8    32.5    32.1
 2015 177     3    33.1    33.0    32.9    32.6    32.2    31.9
 2015 178     4    33.0    33.0    32.8    32.5    32.2    31.9
 2015 179     5    32.7    32.7    32.5    32.2    31.9    31.7
 2015 180     6    32.9    32.9    32.7    32.4    32.1    31.8
 2015 181     7    32.9    32.8    32.7    32.4    32.1    31.8
 2015 182     8    33.1    33.0    32.8    32.5    32.2    31.9
 2015 183     9    32.0    31.9    31.8    31.5    31.2    31.0
 2015 184    10    31.4    31.3    31.2    31.1    30.9    30.7
 2015 185    11    31.3    31.2    31.1    30.9    30.7    30.5
 2015 186    12    31.3    31.2    31.1    30.9    30.7    30.5
 2015 187    13    31.1    31.1    31.0    30.8    30.7    30.5
 2015 188    14    32.1    32.0    31.9    31.7    31.5    31.3
 2015 189    15    32.6    32.5    32.4    32.2    32.0    31.7
 2015 190    16    32.5    32.5    32.4    32.1    31.9    31.7
 2015 191    17    32.2    32.1    32.0    31.8    31.6    31.4
 2015 192    18    32.1    32.0    31.9    31.7    31.5    31.3
 2015 193    19    31.2    31.1    31.0    30.9    30.7    30.5
 2015 194    20    30.5    30.5    30.4    30.3    30.1    30.0
 2015 195    21    30.5    30.5    30.4    30.3    30.1    30.0
 2015 196    22    30.4    30.3    30.3    30.1    30.0    29.9
 2015 197    23    30.1    30.1    30.0    29.9    29.8    29.7
 2015 198    24    30.3    30.3    30.3    30.1    30.0    29.9
 2015 199    25    31.0    31.0    30.9    30.8    30.6    30.5
 2015 200    26    31.3    31.3    31.2    31.1    30.9    30.7
 2015 201    27    30.7    30.6    30.6    30.5    30.3    30.2
 2015 202    28    30.0    30.0    29.9    29.8    29.7    29.6
 2015 203    29    29.9    29.9    29.9    29.8    29.7    29.5
 2015 204    30    29.5    29.5    29.5    29.4    29.3    29.2
 2015 205    31    29.0    29.0    29.0    28.9    28.9    28.8
 2015 206    32    29.6    29.6    29.6    29.5    29.4    29.3
 2015 207    33    29.8    29.8    29.7    29.7    29.6    29.5
 2015 208    34    29.4    29.4    29.3    29.3    29.2    29.1
 2015 209    35    28.9    28.9    28.9    28.8    28.8    28.7
 2015 210    36    28.8    28.7    28.7    28.7    28.7    28.6
 2015 211    37    28.7    28.7    28.7    28.7    28.6    28.6
 2015 212    38    29.1    29.1    29.1    29.1    29.0    29.0
 2015 213    39    30.2    30.2    30.1    30.0    29.9    29.8
 2015 214    40    30.5    30.5    30.4    30.3    30.2    30.1
 2015 215    41    30.7    30.6    30.6    30.5    30.4    30.3
 2015 216    42    30.4    30.4    30.3    30.2    30.1    30.0
 2015 217    43    29.8    29.8    29.7    29.7    29.6    29.5
 2015 218    44    29.4    29.4    29.3    29.3    29.2    29.2
 2015 219    45    28.6    28.6    28.6    28.6    28.5    28.5
 2015 220    46    28.3    28.3    28.3    28.3    28.3    28.3
 2015 221    47    28.5    28.5    28.5    28.5    28.5    28.5
 2015 222    48    28.7    28.7    28.7    28.7    28.7    28.7
 2015 223    49    28.7    28.7    28.7    28.7    28.7    28.7
 2015 224    50    29.5    29.5    29.5    29.5    29.4    29.4
 2015 225    51    30.0    30.0    30.0    29.9    29.8    29.8
 2015 226    52    29.1    29.1    29.1    29.1    29.1    29.0
 2015 227    53    29.1    29.1    29.1    29.1    29.0    29.0
 2015 228    54    29.0    29.0    29.0    29.0    29.0    28.9
 2015 229    55    28.9    28.9    28.9    28.9    28.9    28.9
 2015 230    56    28.4    28.4    28.4    28.5    28.5    28.5
 2015 231    57    28.9    28.9    28.9    28.9    28.9    28.9
 2015 232    58    28.9    28.9    28.9    28.9    28.9    28.9
 2015 233    59    28.5    28.5    28.5    28.5    28.5    28.6
 2015 234    60    28.7    28.7    28.7    28.8    28.8    28.8
 2015 235    61    29.3    29.3    29.3    29.3    29.3    29.2
 2015 236    62    29.4    29.4    29.4    29.4    29.3    29.3
 2015 237    63    29.6    29.6    29.6    29.5    29.5    29.5
 2015 238    64    29.0    29.0    29.0    29.0    29.0    29.0
 2015 239    65    28.7    28.7    28.7    28.7    28.7    28.7
 2015 240    66    28.1    28.1    28.2    28.2    28.2    28.3
 2015 241    67    27.7    27.7    27.7    27.8    27.8    27.9
 2015 242    68    27.6    27.6    27.7    27.7    27.8    27.9
 2015 243    69    28.6    28.6    28.7    28.7    28.7    28.7
 2015 244    70    28.2    28.2    28.3    28.3    28.4    28.4
 2015 245    71    28.4    28.4    28.4    28.4    28.5    28.5
 2015 246    72    28.7    28.7    28.7    28.7    28.7    28.8
 2015 247    73    28.8    28.8    28.8    28.8    28.8    28.8
 2015 248    74    28.8    28.8    28.8    28.8    28.9    28.9
 2015 249    75    29.5    29.5    29.5    29.5    29.5    29.5
 2015 250    76    29.7    29.7    29.7    29.7    29.7    29.7
 2015 251    77    30.1    30.1    30.1    30.1    30.0    30.0
 2015 252    78    30.0    30.0    30.0    30.0    29.9    29.9
 2015 253    79    30.4    30.4    30.4    30.3    30.3    30.2
 2015 254    80    30.8    30.8    30.8    30.7    30.7    30.6
 2015 255    81    31.1    31.1    31.0    31.0    30.9    30.8
 2015 256    82    31.3    31.3    31.3    31.2    31.1    31.0
 2015 257    83    31.6    31.6    31.5    31.4    31.3    31.2
 2015 258    84    31.2    31.2    31.1    31.1    31.0    30.9
 2015 259    85    30.9    30.9    30.9    30.9    30.8    30.7
 2015 260    86    30.3    30.3    30.3    30.3    30.3    30.2
 2015 261    87    30.1    30.1    30.1    30.1    30.1    30.1
 2015 262    88    30.3    30.3    30.3    30.2    30.2    30.2
 2015 263    89    30.7    30.7    30.7    30.7    30.6    30.6
 2015 264    90    30.4    30.4    30.4    30.4    30.4    30.3
 2015 265    91    30.7    30.7    30.7    30.7    30.6    30.6
 2015 266    92    31.0    31.0    31.0    30.9    30.9    30.8
 2015 267    93    31.5    31.5    31.4    31.4    31.3    31.2
 2015 268    94    31.4    31.4    31.4    31.3    31.2    31.2
 2015 269    95    31.9    31.9    31.9    31.8    31.7    31.6
 2015 270    96    32.5    32.5    32.4    32.3    32.2    32.1
 2015 271    97    32.2    32.2    32.1    32.0    31.9    31.8
 2015 272    98    31.6    31.6    31.6    31.5    31.4    31.3
 2015 273    99    31.1    31.1    31.1    31.0    31.0    30.9
 2015 274   100    31.1    31.1    31.0    31.0    30.9    30.9
 2015 275   101    31.1    31.1    31.1    31.1    31.0    30.9
 2015 276   102    31.3    31.3    31.3    31.3    31.2    31.1
 2015 277   103    31.3    31.2    31.2    31.2    31.1    31.1
 2015 278   104    31.7    31.7    31.6    31.6    31.5    31.4
 2015 279   105    31.6    31.6    31.6    31.5    31.4    31.3
 2015 280   106    31.1    31.1    31.1    31.1    31.0    31.0
 2015 281   107    31.2    31.2    31.2    31.1    31.1    31.0
 2015 282   108    31.9    31.8    31.8    31.7    31.7    31.6
 2015 283   109    32.0    32.0    31.9    31.9    31.8    31.7
 2015 284   110    32.2    32.2    32.1    32.0    31.9    31.8
 2015 285   111    32.5    32.5    32.4    32.3    32.2    32.1
 2015 286   112    32.6    32.6    32.5    32.4    32.3    32.2
 2015 287   113    32.5    32.5    32.5    32.4    32.3    32.2
 2015 288   114    32.8    32.8    32.7    32.6    32.5    32.4
 2015 289   115    33.0    33.0    32.9    32.8    32.6    32.5
 2015 290   116    33.3    33.3    33.2    33.1    32.9    32.8
 2015 291   117    33.4    33.4    33.3    33.2    33.0    32.9
 2015 292   118    33.6    33.6    33.5    33.4    33.2    33.1
 2015 293   119    33.4    33.3    33.3    33.1    33.0    32.8
 2015 294   120    33.4    33.3    33.3    33.1    33.0    32.9
 2015 295   121    33.0    33.0    33.0    32.8    32.7    32.6
 2015 296   122    33.1    33.1    33.0    32.9    32.8    32.6
 2015 297   123    33.0    33.0    33.0    32.8    32.7    32.6
 2015 298   124    33.3    33.3    33.2    33.1    32.9    32.8
 2015 299   125    33.1    33.0    33.0    32.9    32.7    32.6
 2015 300   126    33.4    33.3    33.3    33.1    33.0    32.8
 2015 301   127    33.5    33.5    33.4    33.3    33.1    33.0
 2015 302   128    33.5    33.5    33.4    33.3    33.1    32.9
 2015 303   129    33.6    33.6    33.5    33.4    33.2    33.1
 2015 304   130    33.8    33.7    33.7    33.5    33.3    33.2
 2015 305   131    33.2    33.2    33.1    33.0    32.8    32.7
 2015 306   132    33.1    33.1    33.0    32.9    32.8    32.6
 2015 307   133    33.1    33.1    33.0    32.9    32.8    32.6
 2015 308   134    33.2    33.1    33.0    32.9    32.8    32.6
 2015 309   135    33.2    33.2    33.1    33.0    32.8    32.6
 2015 310   136    33.6    33.6    33.5    33.3    33.1    32.9
 2015 311   137    33.6    33.5    33.4    33.3    33.1    32.9
 2015 312   138    33.5    33.5    33.4    33.2    33.0    32.8
 2015 313   139    33.6    33.6    33.5    33.3    33.0    32.8
 2015 314   140    33.9    33.9    33.7    33.5    33.2    33.0
 2015 315   141    34.1    34.1    33.9    33.7    33.4    33.1
 2015 316   142    34.3    34.2    34.1    33.8    33.5    33.2
 2015 317   143    34.5    34.5    34.3    33.9    33.6    33.2
 2015 318   144    34.5    34.4    34.2    33.9    33.5    33.1
 2015 319   145    34.5    34.4    34.1    33.7    33.3    32.9
 2015 320   146    34.6    34.5    34.2    33.7    33.2    32.7
 2015 321   147    34.6    34.5    34.1    33.6    33.0    32.5
