
*SOIL N BALANCE - CENTURY ROUTINES

*DSSAT Cropping System Model Ver. 4.7.2.000 -release      OCT 15, 2021; 17:59:33

!                     |------------------- N State Variables -------------------| |------------ N Additions ------------| |--------------- N Subtractions ----------------| |-Mineralization--|
!                                                                                   Harvest   Applied                                   Tile-     N gas     Flood    Miner-    Immob-  Seasonal
!                       Surface      SOM1      SOM2      SOM3    Litter     Inorg   Residue   Residue  Fertiliz   Senesed   Leached   drained    Uptake    Losses    Losses    alized    ilized   Balance
@Run FILEX         TN      SN0D     S1NTD     S2NTD     S3NTD      LNTD      NIAD      HRNH     RESNC      NICM     SNNTC      NLCM      TDFC      NUCM     NGasC      RNRO      NMNC      NIMC   SEASBAL
   1 ITSA1301.SGX INIT     0.00    125.87   1406.80   4169.10      4.51      0.00
   1 ITSA1301.SGX   1      0.00     37.13   1328.86   4163.98      0.25     81.35      0.00      0.00      0.00      0.23     67.77      0.00     78.49      0.76      0.00    204.26     27.97     -0.00
