*SOM N DAILY OUTPUT FILE

*DSSAT Cropping System Model Ver. 4.7.2.000 -release      OCT 15, 2021; 17:59:33
                                                                                
*RUN   1        :             CSM335_date_1 MZCER047 ITSA1301    1              
 MODEL          : MZCER047 - Maize                                              
 EXPERIMENT     : ITSA1301 SG CALIBRATION SETUP OF SORGHUM SOWING DATES         
 DATA PATH      :                                                               
 TREATMENT  1   :             CSM335_date_1 MZCER047                            
  
!                                                                                                                                                                                                                                                                                                                                                                                                                                                Cumul.
!               <---- SOM N in top layers ----> <---------------- Total Soil Organic Nitrogen ----------------> <-------- Active Soil Organic Nitrogen (SOM1) --------> <---- Intermediate Soil Organic N (SOM2) -----> <------- Passive Soil Organic N (SOM3) -------> <----------------- Litter Nitrogen -------------------> <------------- Metabolic Litter Nitrogen -------------> <------------ Structural Litter Nitrogen ------------->  Res. N
!               20cm-kg  20cm-% 40cm-kg  40cm-%   Total Surface    Soil     0-5    5-15   15-30   30-45   45-60 Surface    Soil     0-5    5-15   15-30   30-45   45-60    Soil     0-5    5-15   15-30   30-45   45-60    Soil     0-5    5-15   15-30   30-45   45-60 Surface    Soil     0-5    5-15   15-30   30-45   45-60 Surface    Soil     0-5    5-15   15-30   30-45   45-60 Surface    Soil     0-5    5-15   15-30   30-45   45-60 (kg/ha)
@YEAR DOY   DAS  SNS20D  SN%20D  SNS40D  SN%40D    SOND    SN0D    SNTD    SN1D    SN2D    SN3D    SN4D   SN5+D   S1N0D   S1NTD   S1N1D   S1N2D   S1N3D   S1N4D  S1N5+D   S2NTD   S2N1D   S2N2D   S2N3D   S2N4D  S2N5+D   S3NTD   S3N1D   S3N2D   S3N3D   S3N4D  S3N5+D    LN0D    LNTD    LN1D    LN2D    LN3D    LN4D   LN5+D   MEN0D   MENTD   MEN1D   MEN2D   MEN3D   MEN4D  MEN5+D   STN0D   STNTD   STN1D   STN2D   STN3D   STN4D  STN5+D   RESNC
 2015 174     0    2225   0.079    1902   0.068    5706       0    5706     556    1114    1674    1180    1182       0     126      21      41      62       1       1    1407     231     462     695       9       9    4169     304     609     915    1170    1171    0.00    4.51    1.06    1.46    1.17    0.55    0.26    0.00    4.12    0.97    1.33    1.07    0.50    0.24    0.00    0.39    0.09    0.13    0.10    0.05    0.02       0
 2015 175     1    2225   0.079    1902   0.068    5705       0    5705     556    1114    1674    1180    1182       0     125      21      41      62       1       1    1407     231     462     695       9       9    4169     304     609     915    1170    1171    0.00    4.41    1.03    1.43    1.15    0.54    0.26    0.00    4.02    0.94    1.30    1.05    0.49    0.23    0.00    0.39    0.09    0.13    0.10    0.05    0.02       0
 2015 176     2    2223   0.079    1901   0.068    5704       0    5704     555    1113    1673    1180    1182       0     124      20      41      62       1       1    1406     231     462     695       9       9    4169     304     609     915    1170    1171    0.00    4.22    0.97    1.34    1.13    0.53    0.25    0.00    3.83    0.88    1.22    1.02    0.48    0.23    0.00    0.39    0.09    0.13    0.10    0.05    0.02       0
 2015 177     3    2222   0.079    1901   0.068    5702       0    5702     555    1112    1673    1180    1182       0     123      20      40      61       1       1    1406     230     462     695       9       9    4169     304     609     915    1170    1171    0.00    4.04    0.90    1.26    1.11    0.52    0.25    0.00    3.65    0.81    1.13    1.00    0.47    0.22    0.00    0.39    0.09    0.13    0.10    0.05    0.02       0
 2015 178     4    2221   0.079    1901   0.068    5701       0    5701     555    1111    1673    1180    1182       0     122      20      39      61       1       1    1406     230     462     695       9       9    4169     304     609     915    1170    1171    0.00    3.87    0.85    1.18    1.09    0.51    0.24    0.00    3.48    0.76    1.06    0.98    0.47    0.22    0.00    0.39    0.09    0.13    0.10    0.05    0.02       0
 2015 179     5    2220   0.079    1901   0.068    5699       0    5699     554    1111    1672    1180    1182       0     121      19      39      61       1       1    1406     230     462     695       9       9    4169     304     609     915    1170    1171    0.00    3.70    0.79    1.11    1.07    0.50    0.24    0.00    3.32    0.70    0.98    0.97    0.46    0.22    0.00    0.39    0.09    0.12    0.10    0.05    0.02       0
 2015 180     6    2219   0.079    1900   0.068    5698       0    5698     554    1110    1672    1180    1182       0     120      19      38      61       1       1    1405     230     462     695       9       9    4169     304     609     915    1170    1171    0.00    3.56    0.74    1.04    1.05    0.50    0.23    0.00    3.17    0.65    0.91    0.95    0.45    0.21    0.00    0.39    0.09    0.12    0.10    0.05    0.02       0
 2015 181     7    2218   0.079    1900   0.068    5696       0    5696     553    1109    1672    1180    1182       0     119      19      38      60       1       1    1405     230     462     695       9       9    4169     304     609     915    1170    1171    0.00    3.43    0.70    0.97    1.03    0.49    0.23    0.00    3.04    0.61    0.85    0.93    0.44    0.21    0.00    0.38    0.09    0.12    0.10    0.05    0.02       0
 2015 182     8    2217   0.079    1900   0.068    5695       0    5695     553    1108    1671    1180    1182       0     118      19      37      60       1       1    1405     230     461     695       9       9    4169     304     609     915    1170    1171    0.00    3.30    0.67    0.91    1.02    0.48    0.23    0.00    2.92    0.58    0.79    0.92    0.43    0.20    0.00    0.38    0.09    0.12    0.10    0.05    0.02       0
 2015 183     9    2216   0.079    1900   0.068    5693       0    5693     553    1108    1671    1180    1182       0     117      18      37      60       1       1    1405     230     461     695       9       9    4169     304     609     915    1170    1171    0.00    3.19    0.63    0.86    1.00    0.47    0.22    0.00    2.80    0.54    0.74    0.90    0.42    0.20    0.00    0.38    0.09    0.12    0.10    0.05    0.02       0
 2015 184    10    2214   0.079    1899   0.068    5692       0    5692     552    1107    1670    1180    1182       0     115      18      36      59       1       1    1404     230     461     695       9       9    4169     304     609     915    1170    1171    0.00    3.06    0.59    0.81    0.97    0.47    0.22    0.00    2.68    0.51    0.69    0.87    0.42    0.20    0.00    0.38    0.09    0.12    0.10    0.05    0.02       0
 2015 185    11    2213   0.079    1899   0.068    5690       0    5690     552    1106    1670    1180    1182       0     114      18      36      59       1       1    1404     230     461     694       9       9    4169     304     609     915    1170    1171    0.00    2.92    0.56    0.76    0.92    0.46    0.22    0.00    2.54    0.47    0.64    0.82    0.41    0.19    0.00    0.38    0.09    0.12    0.10    0.05    0.02       0
 2015 186    12    2212   0.079    1898   0.068    5688       0    5688     552    1106    1669    1180    1182       0     113      18      35      58       1       1    1404     230     461     694       9       9    4169     304     609     915    1170    1171    0.00    2.80    0.53    0.72    0.88    0.45    0.21    0.00    2.42    0.44    0.60    0.78    0.40    0.19    0.00    0.38    0.09    0.12    0.10    0.05    0.02       0
 2015 187    13    2211   0.079    1898   0.068    5686       0    5686     551    1105    1668    1180    1182       0     111      17      35      57       1       1    1403     230     461     694       9       9    4169     304     609     915    1170    1171    0.00    2.67    0.50    0.68    0.83    0.45    0.21    0.00    2.29    0.41    0.56    0.73    0.40    0.19    0.00    0.38    0.09    0.12    0.10    0.05    0.02       0
 2015 188    14    2209   0.079    1897   0.068    5684       0    5684     551    1104    1667    1180    1182       0     109      17      34      56       1       1    1403     230     461     694       9       9    4169     304     609     915    1170    1171    0.00    2.54    0.47    0.64    0.78    0.44    0.21    0.00    2.16    0.39    0.52    0.68    0.39    0.19    0.00    0.38    0.09    0.12    0.10    0.05    0.02       0
 2015 189    15    2208   0.079    1896   0.068    5682       0    5682     551    1103    1666    1180    1182       0     108      17      34      56       1       1    1402     230     460     694       9       9    4169     304     609     915    1170    1171    0.00    2.41    0.45    0.60    0.73    0.43    0.20    0.00    2.04    0.36    0.48    0.63    0.38    0.18    0.00    0.37    0.09    0.12    0.10    0.05    0.02       0
 2015 190    16    2206   0.079    1896   0.068    5679       0    5679     550    1103    1664    1180    1182       0     106      17      33      55       1       1    1402     230     460     693       9       9    4169     304     609     915    1170    1171    0.00    2.29    0.42    0.56    0.68    0.42    0.20    0.00    1.91    0.33    0.44    0.58    0.38    0.18    0.00    0.37    0.09    0.12    0.10    0.05    0.02       0
 2015 191    17    2205   0.079    1895   0.068    5677       0    5677     550    1102    1663    1180    1182       0     105      16      33      54       1       1    1401     229     460     693       9       9    4169     304     609     915    1170    1171    0.00    2.17    0.40    0.53    0.63    0.41    0.20    0.00    1.80    0.31    0.41    0.54    0.36    0.18    0.00    0.37    0.09    0.12    0.10    0.05    0.02       0
 2015 192    18    2204   0.079    1894   0.068    5675       0    5675     549    1101    1662    1180    1182       0     103      16      32      53       1       1    1401     229     460     693       9       9    4169     304     609     915    1170    1171    0.00    2.06    0.37    0.50    0.59    0.39    0.20    0.00    1.69    0.29    0.38    0.50    0.35    0.18    0.00    0.37    0.09    0.12    0.10    0.05    0.02       0
 2015 193    19    2203   0.079    1894   0.068    5673       0    5673     549    1101    1661    1180    1182       0     102      16      32      52       1       1    1400     229     460     693       9       9    4169     304     609     915    1170    1171    0.00    1.96    0.36    0.47    0.56    0.38    0.20    0.00    1.60    0.27    0.36    0.46    0.33    0.17    0.00    0.37    0.09    0.12    0.10    0.05    0.02       0
 2015 194    20    2201   0.079    1893   0.068    5671       0    5671     549    1100    1660    1180    1182       0     100      16      31      52       1       1    1400     229     460     693       9       9    4169     304     609     915    1169    1171    0.00    1.87    0.34    0.45    0.53    0.36    0.19    0.00    1.51    0.26    0.34    0.43    0.31    0.17    0.00    0.37    0.09    0.12    0.10    0.05    0.02       0
 2015 195    21    2200   0.079    1892   0.068    5669       0    5669     549    1099    1659    1180    1182       0      99      15      31      51       1       1    1400     229     459     692       9       9    4169     304     609     915    1169    1171    0.00    1.78    0.32    0.43    0.50    0.34    0.19    0.00    1.41    0.24    0.31    0.40    0.29    0.17    0.00    0.37    0.08    0.12    0.10    0.05    0.02       0
 2015 196    22    2199   0.079    1892   0.068    5667       0    5667     548    1099    1658    1180    1182       0      98      15      30      50       1       1    1399     229     459     692       9       9    4169     304     609     915    1169    1171    0.00    1.69    0.31    0.41    0.47    0.32    0.18    0.00    1.33    0.23    0.29    0.38    0.27    0.16    0.00    0.37    0.08    0.12    0.10    0.05    0.02       0
 2015 197    23    2198   0.078    1891   0.068    5666       0    5666     548    1098    1657    1180    1182       0      96      15      30      50       1       1    1399     229     459     692       9       9    4169     304     609     915    1169    1171    0.00    1.62    0.30    0.39    0.45    0.30    0.18    0.00    1.25    0.22    0.28    0.35    0.25    0.16    0.00    0.36    0.08    0.12    0.10    0.05    0.02       0
 2015 198    24    2197   0.078    1891   0.068    5664       0    5664     548    1098    1657    1180    1182       0      95      15      29      49       1       1    1398     229     459     692       9       9    4169     304     609     915    1169    1171    0.00    1.55    0.29    0.37    0.43    0.28    0.17    0.00    1.19    0.21    0.26    0.33    0.24    0.15    0.00    0.36    0.08    0.12    0.10    0.05    0.02       0
 2015 199    25    2196   0.078    1890   0.068    5662       0    5662     548    1097    1656    1180    1182       0      94      15      29      48       1       1    1398     229     459     691       9       9    4169     304     609     915    1169    1171    0.00    1.49    0.29    0.36    0.40    0.27    0.17    0.00    1.13    0.20    0.24    0.31    0.22    0.15    0.00    0.36    0.08    0.11    0.09    0.05    0.02       0
 2015 200    26    2195   0.078    1890   0.067    5661       0    5661     548    1097    1655    1180    1182       0      93      15      29      48       1       1    1397     229     459     691       9       9    4169     304     609     915    1169    1171    0.00    1.43    0.28    0.35    0.39    0.25    0.17    0.00    1.07    0.20    0.23    0.29    0.21    0.14    0.00    0.36    0.08    0.11    0.09    0.05    0.02       0
 2015 201    27    2194   0.078    1889   0.067    5659       0    5659     547    1096    1654    1180    1182       0      92      15      28      47       1       1    1397     229     459     691       9       9    4169     304     609     915    1169    1171    0.00    1.38    0.28    0.33    0.37    0.24    0.16    0.00    1.02    0.19    0.22    0.27    0.19    0.14    0.00    0.36    0.08    0.11    0.09    0.05    0.02       0
 2015 202    28    2193   0.078    1888   0.067    5658       0    5658     547    1096    1653    1180    1182       0      91      14      28      47       1       1    1397     229     458     691       9       9    4169     304     609     915    1169    1171    0.00    1.32    0.27    0.32    0.35    0.23    0.15    0.00    0.96    0.18    0.21    0.26    0.18    0.13    0.00    0.36    0.08    0.11    0.09    0.05    0.02       0
 2015 203    29    2192   0.078    1888   0.067    5656       0    5656     547    1095    1652    1180    1182       0      90      14      28      46       1       1    1396     229     458     691       9       9    4169     304     609     915    1169    1171    0.00    1.26    0.25    0.31    0.34    0.22    0.15    0.00    0.91    0.17    0.19    0.24    0.17    0.12    0.00    0.36    0.08    0.11    0.09    0.05    0.02       0
 2015 204    30    2191   0.078    1887   0.067    5654       0    5654     547    1094    1651    1180    1182       0      89      14      27      45       1       1    1395     229     458     690       9       9    4169     304     609     915    1169    1171    0.00    1.21    0.24    0.29    0.32    0.21    0.14    0.00    0.85    0.16    0.18    0.23    0.16    0.12    0.00    0.36    0.08    0.11    0.09    0.05    0.02       0
 2015 205    31    2190   0.078    1887   0.067    5652       0    5652     546    1094    1650    1180    1182       0      87      14      27      45       1       1    1395     228     458     690       9       9    4169     304     609     915    1169    1171    0.00    1.16    0.23    0.28    0.31    0.20    0.13    0.00    0.80    0.15    0.17    0.21    0.15    0.11    0.00    0.35    0.08    0.11    0.09    0.05    0.02       0
 2015 206    32    2189   0.078    1886   0.067    5650       0    5650     546    1093    1650    1180    1182       0      86      14      27      44       1       1    1394     228     458     690       9       9    4169     304     609     915    1169    1171    0.00    1.11    0.23    0.27    0.30    0.19    0.13    0.00    0.76    0.15    0.16    0.20    0.14    0.10    0.00    0.35    0.08    0.11    0.09    0.04    0.02       0
 2015 207    33    2188   0.078    1885   0.067    5649       0    5649     546    1093    1649    1180    1182       0      85      14      26      43       1       1    1394     228     457     690       9       9    4169     304     609     915    1169    1171    0.00    1.07    0.22    0.27    0.28    0.18    0.12    0.00    0.72    0.14    0.15    0.19    0.14    0.10    0.00    0.35    0.08    0.11    0.09    0.04    0.02       0
 2015 208    34    2187   0.078    1885   0.067    5647       0    5647     546    1092    1648    1180    1182       0      84      13      26      43       1       1    1393     228     457     689       9       9    4168     304     609     915    1169    1171    0.00    1.03    0.22    0.26    0.27    0.17    0.11    0.00    0.68    0.13    0.15    0.18    0.13    0.09    0.00    0.35    0.08    0.11    0.09    0.04    0.02       0
 2015 209    35    2186   0.078    1884   0.067    5646       0    5646     545    1092    1647    1180    1181       0      83      13      26      42       1       1    1393     228     457     689       9       9    4168     304     609     915    1169    1171    0.00    1.00    0.21    0.25    0.26    0.17    0.11    0.00    0.65    0.13    0.14    0.17    0.12    0.09    0.00    0.35    0.08    0.11    0.09    0.04    0.02       0
 2015 210    36    2185   0.078    1884   0.067    5644       0    5644     545    1091    1646    1180    1181       0      82      13      25      42       1       1    1393     228     457     689       9       9    4168     304     609     915    1169    1171    0.00    0.97    0.20    0.25    0.26    0.16    0.10    0.00    0.62    0.12    0.13    0.16    0.12    0.08    0.00    0.35    0.08    0.11    0.09    0.04    0.02       0
 2015 211    37    2184   0.078    1883   0.067    5643       0    5643     545    1091    1646    1180    1181       0      82      13      25      41       1       1    1392     228     457     689       9       9    4168     304     609     915    1169    1171    0.00    0.94    0.20    0.24    0.25    0.15    0.10    0.00    0.59    0.11    0.13    0.16    0.11    0.08    0.00    0.35    0.08    0.11    0.09    0.04    0.02       0
 2015 212    38    2183   0.078    1883   0.067    5642       0    5642     545    1091    1645    1180    1181       0      81      13      25      41       1       1    1392     228     457     688       9       9    4168     304     609     915    1169    1171    0.00    0.91    0.19    0.24    0.24    0.15    0.10    0.00    0.57    0.11    0.12    0.15    0.11    0.07    0.00    0.35    0.08    0.11    0.09    0.04    0.02       0
 2015 213    39    2183   0.078    1883   0.067    5641       0    5641     545    1090    1645    1180    1181       0      80      13      25      41       1       1    1391     228     457     688       9       9    4168     304     609     915    1169    1171    0.00    0.89    0.19    0.23    0.24    0.15    0.09    0.00    0.55    0.11    0.12    0.15    0.10    0.07    0.00    0.35    0.08    0.11    0.09    0.04    0.02       0
 2015 214    40    2182   0.078    1882   0.067    5640       0    5640     544    1090    1644    1180    1181       0      79      13      24      40       1       1    1391     228     456     688       9       9    4168     304     609     915    1169    1171    0.00    0.87    0.19    0.23    0.23    0.14    0.09    0.00    0.53    0.10    0.12    0.14    0.10    0.07    0.00    0.35    0.08    0.11    0.09    0.04    0.02       0
 2015 215    41    2181   0.078    1882   0.067    5638       0    5638     544    1090    1643    1180    1181       0      79      13      24      40       1       1    1390     228     456     688       9       9    4168     304     609     915    1169    1171    0.00    0.85    0.18    0.22    0.23    0.14    0.09    0.00    0.50    0.10    0.11    0.14    0.09    0.07    0.00    0.35    0.08    0.11    0.09    0.04    0.02       0
 2015 216    42    2180   0.078    1881   0.067    5637       0    5637     544    1089    1643    1180    1181       0      78      12      24      39       1       1    1390     228     456     688       9       9    4168     304     609     915    1169    1171    0.00    0.83    0.17    0.21    0.22    0.13    0.08    0.00    0.48    0.09    0.10    0.13    0.09    0.06    0.00    0.35    0.08    0.11    0.09    0.04    0.02       0
 2015 217    43    2179   0.078    1881   0.067    5635       0    5635     544    1088    1642    1180    1181       0      77      12      24      39       1       1    1389     228     456     687       9       9    4168     304     609     915    1169    1171    0.00    0.81    0.17    0.21    0.22    0.13    0.08    0.00    0.46    0.09    0.10    0.13    0.09    0.06    0.00    0.34    0.08    0.11    0.09    0.04    0.02       0
 2015 218    44    2178   0.078    1880   0.067    5633       0    5633     543    1088    1641    1180    1181       0      76      12      23      39       1       1    1389     227     456     687       9       9    4168     304     609     915    1169    1171    0.00    0.79    0.16    0.20    0.21    0.13    0.08    0.00    0.44    0.08    0.10    0.12    0.08    0.06    0.00    0.34    0.08    0.11    0.09    0.04    0.02       0
 2015 219    45    2177   0.078    1880   0.067    5632       0    5632     543    1087    1640    1180    1181       0      75      12      23      38       1       1    1388     227     455     687       9       9    4168     304     609     915    1169    1171    0.00    0.76    0.16    0.20    0.20    0.12    0.08    0.00    0.42    0.08    0.09    0.11    0.08    0.06    0.00    0.34    0.08    0.11    0.09    0.04    0.02       0
 2015 220    46    2176   0.078    1879   0.067    5630       0    5630     543    1087    1640    1180    1181       0      74      12      23      38       1       1    1388     227     455     686       9       9    4168     304     609     915    1169    1171    0.00    0.75    0.16    0.20    0.20    0.12    0.08    0.00    0.41    0.08    0.09    0.11    0.08    0.05    0.00    0.34    0.08    0.11    0.09    0.04    0.02       0
 2015 221    47    2175   0.078    1879   0.067    5629       0    5629     543    1087    1639    1180    1181       0      73      12      22      37       1       1    1387     227     455     686       9       9    4168     304     609     915    1169    1171    0.00    0.73    0.15    0.19    0.20    0.12    0.07    0.00    0.39    0.07    0.08    0.11    0.07    0.05    0.00    0.34    0.08    0.11    0.09    0.04    0.02       0
 2015 222    48    2174   0.078    1878   0.067    5627       0    5627     542    1086    1638    1179    1181       0      72      12      22      37       1       1    1386     227     455     686       9       9    4168     304     609     915    1169    1171    0.00    0.72    0.15    0.19    0.19    0.11    0.07    0.00    0.38    0.07    0.08    0.10    0.07    0.05    0.00    0.34    0.08    0.11    0.09    0.04    0.02       0
 2015 223    49    2173   0.078    1878   0.067    5626       0    5626     542    1086    1637    1179    1181       0      71      11      22      36       1       1    1386     227     455     686       9       9    4168     304     609     915    1169    1171    0.00    0.70    0.15    0.19    0.19    0.11    0.07    0.00    0.36    0.07    0.08    0.10    0.07    0.05    0.00    0.34    0.08    0.11    0.09    0.04    0.02       0
 2015 224    50    2172   0.078    1877   0.067    5624       0    5624     542    1085    1637    1179    1181       0      71      11      22      36       1       1    1385     227     454     685       9       9    4168     304     609     915    1169    1171    0.00    0.69    0.14    0.18    0.18    0.11    0.07    0.00    0.35    0.06    0.07    0.10    0.07    0.05    0.00    0.34    0.08    0.11    0.09    0.04    0.02       0
 2015 225    51    2171   0.078    1877   0.067    5623       0    5623     542    1085    1636    1179    1181       0      70      11      21      35       1       1    1384     227     454     685       9       9    4168     304     609     915    1169    1171    0.00    0.68    0.14    0.18    0.18    0.11    0.07    0.00    0.34    0.06    0.07    0.09    0.06    0.05    0.00    0.34    0.08    0.11    0.09    0.04    0.02       0
 2015 226    52    2170   0.078    1876   0.067    5621       0    5621     541    1084    1635    1179    1181       0      69      11      21      35       1       1    1384     227     454     685       9       9    4168     304     609     915    1169    1171    0.00    0.66    0.14    0.18    0.18    0.11    0.07    0.00    0.33    0.06    0.07    0.09    0.06    0.05    0.00    0.34    0.08    0.11    0.09    0.04    0.02       0
 2015 227    53    2169   0.077    1876   0.067    5620       0    5620     541    1084    1634    1179    1181       0      68      11      21      34       1       1    1383     227     454     684       9       9    4168     304     609     915    1169    1171    0.00    0.64    0.13    0.17    0.17    0.10    0.06    0.00    0.31    0.06    0.07    0.08    0.06    0.04    0.00    0.34    0.08    0.11    0.09    0.04    0.02       0
 2015 228    54    2168   0.077    1875   0.067    5618       0    5618     541    1083    1633    1179    1181       0      67      11      21      34       1       1    1382     226     454     684       9       9    4168     304     609     915    1169    1171    0.00    0.63    0.13    0.17    0.17    0.10    0.06    0.00    0.30    0.05    0.06    0.08    0.06    0.04    0.00    0.34    0.08    0.11    0.09    0.04    0.02       0
 2015 229    55    2167   0.077    1874   0.067    5616       0    5616     541    1083    1633    1179    1181       0      66      11      20      34       1       1    1382     226     453     684       9       9    4168     304     609     915    1169    1171    0.00    0.62    0.13    0.17    0.17    0.10    0.06    0.00    0.29    0.05    0.06    0.08    0.06    0.04    0.00    0.33    0.08    0.11    0.09    0.04    0.02       0
 2015 230    56    2167   0.077    1874   0.067    5615       0    5615     541    1082    1632    1179    1181       0      66      11      20      33       1       1    1381     226     453     683       9       9    4168     304     609     915    1169    1171    0.00    0.61    0.13    0.16    0.16    0.09    0.06    0.00    0.27    0.05    0.06    0.07    0.05    0.04    0.00    0.33    0.08    0.10    0.09    0.04    0.02       0
 2015 231    57    2166   0.077    1873   0.067    5614       0    5614     540    1082    1631    1179    1181       0      65      10      20      33       1       1    1380     226     453     683       9       9    4168     304     609     915    1169    1171    0.00    0.60    0.12    0.16    0.16    0.09    0.06    0.00    0.27    0.05    0.06    0.07    0.05    0.04    0.00    0.33    0.08    0.10    0.09    0.04    0.02       0
 2015 232    58    2165   0.077    1873   0.067    5612       0    5612     540    1081    1630    1179    1181       0      64      10      20      32       1       1    1380     226     453     683       9       9    4168     304     609     915    1169    1171    0.00    0.58    0.12    0.16    0.16    0.09    0.06    0.00    0.25    0.04    0.05    0.07    0.05    0.04    0.00    0.33    0.08    0.10    0.09    0.04    0.02       0
 2015 233    59    2164   0.077    1872   0.067    5611       0    5611     540    1081    1630    1179    1181       0      63      10      20      32       1       1    1379     226     452     682       9       9    4167     304     609     915    1169    1171    0.00    0.56    0.12    0.15    0.15    0.09    0.05    0.00    0.23    0.04    0.05    0.06    0.04    0.03    0.00    0.33    0.08    0.10    0.09    0.04    0.02       0
 2015 234    60    2163   0.077    1872   0.067    5609       0    5609     540    1081    1629    1179    1181       0      63      10      19      32       1       1    1379     226     452     682       9       9    4167     304     609     915    1169    1171    0.00    0.55    0.12    0.15    0.15    0.08    0.05    0.00    0.22    0.04    0.05    0.06    0.04    0.03    0.00    0.33    0.08    0.10    0.09    0.04    0.02       0
 2015 235    61    2162   0.077    1872   0.067    5608       0    5608     540    1080    1628    1179    1181       0      62      10      19      31       1       1    1378     226     452     682       9       9    4167     304     609     915    1169    1171    0.00    0.53    0.11    0.15    0.14    0.08    0.05    0.00    0.21    0.04    0.04    0.06    0.04    0.03    0.00    0.33    0.08    0.10    0.09    0.04    0.02       0
 2015 236    62    2161   0.077    1871   0.067    5606       0    5606     539    1080    1628    1179    1181       0      61      10      19      31       1       1    1377     226     452     681       9       9    4167     304     609     915    1169    1171    0.00    0.52    0.11    0.14    0.14    0.08    0.05    0.00    0.19    0.03    0.04    0.05    0.04    0.03    0.00    0.33    0.08    0.10    0.09    0.04    0.02       0
 2015 237    63    2160   0.077    1871   0.067    5605       0    5605     539    1079    1627    1179    1181       0      61      10      19      31       1       1    1377     226     452     681       9       9    4167     304     609     915    1169    1171    0.00    0.51    0.11    0.14    0.14    0.08    0.05    0.00    0.18    0.03    0.04    0.05    0.03    0.03    0.00    0.33    0.08    0.10    0.09    0.04    0.02       0
 2015 238    64    2159   0.077    1870   0.067    5604       0    5604     539    1079    1626    1179    1181       0      60      10      19      30       1       1    1376     225     451     681       9       9    4167     304     609     915    1169    1171    0.00    0.49    0.11    0.14    0.13    0.07    0.05    0.00    0.17    0.03    0.04    0.05    0.03    0.02    0.00    0.32    0.07    0.10    0.08    0.04    0.02       0
 2015 239    65    2159   0.077    1870   0.067    5603       0    5603     539    1078    1626    1179    1181       0      59      10      18      30       1       1    1375     225     451     680       9       9    4167     304     609     915    1169    1171    0.00    0.48    0.10    0.14    0.13    0.07    0.04    0.00    0.16    0.03    0.03    0.04    0.03    0.02    0.00    0.32    0.07    0.10    0.08    0.04    0.02       0
 2015 240    66    2158   0.077    1869   0.067    5601       0    5601     538    1078    1625    1179    1181       0      59       9      18      30       1       1    1375     225     451     680       9       9    4167     304     609     915    1169    1171    0.00    0.47    0.10    0.13    0.13    0.07    0.04    0.00    0.15    0.03    0.03    0.04    0.03    0.02    0.00    0.32    0.07    0.10    0.08    0.04    0.02       0
 2015 241    67    2157   0.077    1869   0.067    5600       0    5600     538    1078    1625    1179    1181       0      58       9      18      29       1       1    1374     225     451     680       9       9    4167     304     609     915    1169    1171    0.00    0.46    0.10    0.13    0.12    0.07    0.04    0.00    0.14    0.03    0.03    0.04    0.03    0.02    0.00    0.32    0.07    0.10    0.08    0.04    0.02       0
 2015 242    68    2156   0.077    1868   0.067    5599       0    5599     538    1077    1624    1179    1181       0      58       9      18      29       1       1    1373     225     451     679       9       9    4167     304     609     915    1169    1171    0.00    0.45    0.10    0.13    0.12    0.07    0.04    0.00    0.14    0.02    0.03    0.04    0.03    0.02    0.00    0.32    0.07    0.10    0.08    0.04    0.02       0
 2015 243    69    2156   0.077    1868   0.067    5597       0    5597     538    1077    1623    1179    1181       0      57       9      18      29       1       1    1373     225     450     679       9       9    4167     304     609     915    1169    1171    0.00    0.45    0.10    0.13    0.12    0.07    0.04    0.00    0.13    0.02    0.03    0.04    0.02    0.02    0.00    0.32    0.07    0.10    0.08    0.04    0.02       0
 2015 244    70    2155   0.077    1868   0.067    5596       0    5596     538    1076    1623    1179    1181       0      57       9      17      28       1       1    1372     225     450     679       9       9    4167     304     609     915    1169    1171    0.00    0.44    0.09    0.12    0.12    0.06    0.04    0.00    0.12    0.02    0.03    0.03    0.02    0.02    0.00    0.32    0.07    0.10    0.08    0.04    0.02       0
 2015 245    71    2154   0.077    1867   0.067    5595       0    5595     537    1076    1622    1179    1181       0      56       9      17      28       1       1    1371     225     450     678       9       9    4167     304     609     915    1169    1171    0.00    0.43    0.09    0.12    0.11    0.06    0.04    0.00    0.11    0.02    0.02    0.03    0.02    0.02    0.00    0.32    0.07    0.10    0.08    0.04    0.02       0
 2015 246    72    2153   0.077    1867   0.067    5594       0    5594     537    1076    1621    1179    1180       0      55       9      17      28       1       1    1371     225     450     678       9       9    4167     304     609     915    1169    1171    0.00    0.42    0.09    0.12    0.11    0.06    0.04    0.00    0.11    0.02    0.02    0.03    0.02    0.02    0.00    0.31    0.07    0.10    0.08    0.04    0.02       0
 2015 247    73    2152   0.077    1866   0.067    5592       0    5592     537    1075    1621    1179    1180       0      55       9      17      28       1       1    1370     225     449     678       9       9    4167     304     609     915    1169    1171    0.00    0.41    0.09    0.12    0.11    0.06    0.03    0.00    0.10    0.02    0.02    0.03    0.02    0.01    0.00    0.31    0.07    0.10    0.08    0.04    0.02       0
 2015 248    74    2152   0.077    1866   0.067    5591       0    5591     537    1075    1620    1179    1180       0      54       9      17      27       1       1    1370     224     449     677       9       9    4167     304     609     915    1169    1171    0.00    0.41    0.09    0.12    0.11    0.06    0.03    0.00    0.09    0.02    0.02    0.03    0.02    0.01    0.00    0.31    0.07    0.10    0.08    0.04    0.02       0
 2015 249    75    2151   0.077    1866   0.067    5590       0    5590     537    1075    1620    1179    1180       0      54       9      17      27       1       1    1369     224     449     677       9       9    4167     304     609     915    1169    1170    0.00    0.40    0.09    0.12    0.11    0.06    0.03    0.00    0.09    0.02    0.02    0.02    0.02    0.01    0.00    0.31    0.07    0.10    0.08    0.04    0.02       0
 2015 250    76    2150   0.077    1865   0.067    5589       0    5589     537    1074    1619    1179    1180       0      53       9      17      27       1       1    1368     224     449     677       9       9    4167     304     609     915    1169    1170    0.00    0.39    0.09    0.12    0.10    0.06    0.03    0.00    0.08    0.02    0.02    0.02    0.02    0.01    0.00    0.31    0.07    0.10    0.08    0.04    0.02       0
 2015 251    77    2149   0.077    1865   0.067    5588       0    5588     536    1074    1619    1179    1180       0      53       8      16      27       1       1    1368     224     449     677       9       9    4167     304     609     915    1169    1170    0.00    0.39    0.09    0.11    0.10    0.05    0.03    0.00    0.08    0.01    0.02    0.02    0.01    0.01    0.00    0.31    0.07    0.10    0.08    0.04    0.02       0
 2015 252    78    2149   0.077    1864   0.067    5586       0    5586     536    1073    1618    1179    1180       0      52       8      16      26       1       1    1367     224     448     676       9       9    4167     304     609     915    1169    1170    0.00    0.38    0.08    0.11    0.10    0.05    0.03    0.00    0.07    0.01    0.02    0.02    0.01    0.01    0.00    0.31    0.07    0.10    0.08    0.04    0.02       0
 2015 253    79    2148   0.077    1864   0.067    5585       0    5585     536    1073    1617    1179    1180       0      52       8      16      26       1       1    1366     224     448     676       9       9    4167     304     609     915    1169    1170    0.00    0.38    0.08    0.11    0.10    0.05    0.03    0.00    0.07    0.01    0.01    0.02    0.01    0.01    0.00    0.31    0.07    0.10    0.08    0.04    0.02       0
 2015 254    80    2147   0.077    1863   0.067    5584       0    5584     536    1073    1617    1179    1180       0      51       8      16      26       1       1    1365     224     448     675       9       9    4167     304     609     915    1168    1170    0.00    0.37    0.08    0.11    0.10    0.05    0.03    0.00    0.06    0.01    0.01    0.02    0.01    0.01    0.00    0.31    0.07    0.10    0.08    0.04    0.02       0
 2015 255    81    2146   0.077    1863   0.067    5582       0    5582     535    1072    1616    1179    1180       0      51       8      16      25       1       1    1365     224     448     675       9       9    4167     304     609     915    1168    1170    0.00    0.36    0.08    0.11    0.10    0.05    0.03    0.00    0.06    0.01    0.01    0.02    0.01    0.01    0.00    0.30    0.07    0.10    0.08    0.04    0.02       0
 2015 256    82    2145   0.077    1862   0.067    5581       0    5581     535    1072    1615    1178    1180       0      50       8      16      25       1       1    1364     223     447     675       9       9    4167     304     609     915    1168    1170    0.00    0.36    0.08    0.11    0.09    0.05    0.03    0.00    0.06    0.01    0.01    0.02    0.01    0.01    0.00    0.30    0.07    0.09    0.08    0.04    0.02       0
 2015 257    83    2144   0.077    1862   0.066    5580       0    5580     535    1071    1615    1178    1180       0      50       8      15      25       1       1    1363     223     447     674       9       9    4166     304     609     915    1168    1170    0.00    0.35    0.08    0.11    0.09    0.05    0.03    0.00    0.05    0.01    0.01    0.01    0.01    0.01    0.00    0.30    0.07    0.09    0.08    0.04    0.02       0
 2015 258    84    2144   0.077    1862   0.066    5578       0    5578     535    1071    1614    1178    1180       0      49       8      15      25       1       1    1362     223     447     674       9       9    4166     304     609     915    1168    1170    0.00    0.35    0.08    0.10    0.09    0.05    0.03    0.00    0.05    0.01    0.01    0.01    0.01    0.01    0.00    0.30    0.07    0.09    0.08    0.04    0.02       0
 2015 259    85    2143   0.077    1861   0.066    5577       0    5577     535    1070    1613    1178    1180       0      49       8      15      24       1       1    1362     223     447     674       9       9    4166     304     609     915    1168    1170    0.00    0.34    0.08    0.10    0.09    0.05    0.03    0.00    0.04    0.01    0.01    0.01    0.01    0.01    0.00    0.30    0.07    0.09    0.08    0.04    0.02       0
 2015 260    86    2142   0.076    1861   0.066    5576       0    5576     534    1070    1613    1178    1180       0      48       8      15      24       1       1    1361     223     446     673       9       9    4166     304     609     915    1168    1170    0.00    0.34    0.08    0.10    0.09    0.05    0.02    0.00    0.04    0.01    0.01    0.01    0.01    0.01    0.00    0.30    0.07    0.09    0.08    0.04    0.02       0
 2015 261    87    2141   0.076    1860   0.066    5575       0    5575     534    1070    1612    1178    1180       0      48       8      15      24       1       1    1360     223     446     673       9       9    4166     304     609     915    1168    1170    0.00    0.34    0.08    0.10    0.09    0.05    0.02    0.00    0.04    0.01    0.01    0.01    0.01    0.01    0.00    0.30    0.07    0.09    0.08    0.04    0.02       0
 2015 262    88    2140   0.076    1860   0.066    5574       0    5574     534    1069    1612    1178    1180       0      47       8      15      24       1       1    1360     223     446     673       9       9    4166     304     609     915    1168    1170    0.00    0.33    0.08    0.10    0.09    0.04    0.02    0.00    0.04    0.01    0.01    0.01    0.01    0.01    0.00    0.29    0.07    0.09    0.08    0.04    0.02       0
 2015 263    89    2140   0.076    1860   0.066    5572       0    5572     534    1069    1611    1178    1180       0      47       8      15      24       1       1    1359     223     446     672       9       9    4166     304     609     915    1168    1170    0.00    0.33    0.07    0.10    0.09    0.04    0.02    0.00    0.03    0.01    0.01    0.01    0.01    0.00    0.00    0.29    0.07    0.09    0.08    0.04    0.02       0
 2015 264    90    2139   0.076    1859   0.066    5571       0    5571     534    1069    1611    1178    1180       0      47       7      14      23       1       1    1358     223     445     672       9       9    4166     304     609     915    1168    1170    0.00    0.32    0.07    0.10    0.09    0.04    0.02    0.00    0.03    0.01    0.01    0.01    0.01    0.00    0.00    0.29    0.07    0.09    0.08    0.04    0.02       0
 2015 265    91    2138   0.076    1859   0.066    5570       0    5570     534    1068    1610    1178    1180       0      46       7      14      23       1       1    1357     222     445     672       9       9    4166     304     609     915    1168    1170    0.00    0.32    0.07    0.10    0.08    0.04    0.02    0.00    0.03    0.01    0.01    0.01    0.01    0.00    0.00    0.29    0.07    0.09    0.08    0.04    0.02       0
 2015 266    92    2138   0.076    1858   0.066    5569       0    5569     533    1068    1610    1178    1180       0      46       7      14      23       1       1    1357     222     445     671       9       9    4166     304     609     915    1168    1170    0.00    0.32    0.07    0.10    0.08    0.04    0.02    0.00    0.03    0.01    0.01    0.01    0.01    0.00    0.00    0.29    0.07    0.09    0.08    0.04    0.02       0
 2015 267    93    2137   0.076    1858   0.066    5568       0    5568     533    1068    1609    1178    1180       0      46       7      14      23       1       1    1356     222     445     671       9       9    4166     304     609     915    1168    1170    0.00    0.31    0.07    0.10    0.08    0.04    0.02    0.00    0.03    0.00    0.01    0.01    0.00    0.00    0.00    0.29    0.07    0.09    0.08    0.04    0.02       0
 2015 268    94    2136   0.076    1858   0.066    5567       0    5567     533    1067    1609    1178    1180       0      45       7      14      23       1       1    1355     222     444     670       9       9    4166     304     609     915    1168    1170    0.00    0.31    0.07    0.10    0.08    0.04    0.02    0.00    0.02    0.00    0.01    0.01    0.00    0.00    0.00    0.29    0.07    0.09    0.08    0.04    0.02       0
 2015 269    95    2135   0.076    1857   0.066    5566       0    5566     533    1067    1608    1178    1180       0      45       7      14      23       1       1    1355     222     444     670       9       9    4166     304     609     915    1168    1170    0.00    0.31    0.07    0.09    0.08    0.04    0.02    0.00    0.02    0.00    0.00    0.01    0.00    0.00    0.00    0.29    0.07    0.09    0.07    0.04    0.02       0
 2015 270    96    2135   0.076    1857   0.066    5564       0    5564     533    1066    1608    1178    1180       0      44       7      14      22       1       1    1354     222     444     670       9       9    4166     304     609     915    1168    1170    0.00    0.31    0.07    0.09    0.08    0.04    0.02    0.00    0.02    0.00    0.00    0.01    0.00    0.00    0.00    0.29    0.07    0.09    0.07    0.04    0.02       0
 2015 271    97    2134   0.076    1857   0.066    5563       0    5563     532    1066    1607    1178    1180       0      44       7      14      22       1       1    1353     222     444     669       9       9    4166     304     609     915    1168    1170    0.00    0.30    0.07    0.09    0.08    0.04    0.02    0.00    0.02    0.00    0.00    0.01    0.00    0.00    0.00    0.28    0.07    0.09    0.07    0.04    0.02       0
 2015 272    98    2133   0.076    1856   0.066    5562       0    5562     532    1066    1607    1178    1180       0      44       7      14      22       1       1    1352     222     443     669       9       9    4166     304     609     915    1168    1170    0.00    0.30    0.07    0.09    0.08    0.04    0.02    0.00    0.02    0.00    0.00    0.01    0.00    0.00    0.00    0.28    0.07    0.09    0.07    0.04    0.02       0
 2015 273    99    2133   0.076    1856   0.066    5561       0    5561     532    1065    1606    1178    1180       0      44       7      13      22       1       1    1352     222     443     669       9       9    4166     304     609     915    1168    1170    0.00    0.30    0.07    0.09    0.08    0.04    0.02    0.00    0.02    0.00    0.00    0.00    0.00    0.00    0.00    0.28    0.07    0.09    0.07    0.04    0.02       0
 2015 274   100    2132   0.076    1856   0.066    5560       0    5560     532    1065    1606    1178    1180       0      43       7      13      22       1       1    1351     221     443     669       9       9    4166     304     609     915    1168    1170    0.00    0.30    0.07    0.09    0.08    0.04    0.02    0.00    0.02    0.00    0.00    0.00    0.00    0.00    0.00    0.28    0.07    0.09    0.07    0.04    0.02       0
 2015 275   101    2131   0.076    1855   0.066    5559       0    5559     532    1065    1605    1178    1180       0      43       7      13      22       1       1    1350     221     443     668       9       9    4166     304     609     915    1168    1170    0.00    0.29    0.07    0.09    0.08    0.04    0.02    0.00    0.02    0.00    0.00    0.00    0.00    0.00    0.00    0.28    0.06    0.09    0.07    0.04    0.02       0
 2015 276   102    2131   0.076    1855   0.066    5558       0    5558     532    1064    1605    1178    1180       0      43       7      13      22       1       1    1350     221     442     668       9       9    4166     304     609     915    1168    1170    0.00    0.29    0.07    0.09    0.08    0.04    0.02    0.00    0.01    0.00    0.00    0.00    0.00    0.00    0.00    0.28    0.06    0.09    0.07    0.04    0.02       0
 2015 277   103    2130   0.076    1855   0.066    5557       0    5557     531    1064    1604    1178    1180       0      42       7      13      22       1       1    1349     221     442     668       9       9    4166     304     609     915    1168    1170    0.00    0.29    0.07    0.09    0.08    0.04    0.02    0.00    0.01    0.00    0.00    0.00    0.00    0.00    0.00    0.28    0.06    0.09    0.07    0.04    0.02       0
 2015 278   104    2129   0.076    1854   0.066    5556       0    5556     531    1064    1604    1178    1180       0      42       7      13      21       1       1    1348     221     442     667       9       9    4165     304     609     915    1168    1170    0.00    0.29    0.07    0.09    0.08    0.04    0.02    0.00    0.01    0.00    0.00    0.00    0.00    0.00    0.00    0.28    0.06    0.09    0.07    0.04    0.02       0
 2015 279   105    2129   0.076    1854   0.066    5555       0    5555     531    1063    1603    1178    1180       0      42       7      13      21       1       1    1348     221     442     667       9       9    4165     304     609     915    1168    1170    0.00    0.29    0.07    0.09    0.08    0.04    0.02    0.00    0.01    0.00    0.00    0.00    0.00    0.00    0.00    0.27    0.06    0.09    0.07    0.04    0.02       0
 2015 280   106    2128   0.076    1854   0.066    5554       0    5554     531    1063    1603    1178    1180       0      42       7      13      21       1       1    1347     221     441     666       9       9    4165     304     609     915    1168    1170    0.00    0.28    0.07    0.09    0.07    0.04    0.02    0.00    0.01    0.00    0.00    0.00    0.00    0.00    0.00    0.27    0.06    0.09    0.07    0.04    0.02       0
 2015 281   107    2127   0.076    1853   0.066    5553       0    5553     531    1063    1602    1178    1180       0      41       6      13      21       1       1    1346     221     441     666       9       9    4165     304     609     915    1168    1170    0.00    0.28    0.07    0.09    0.07    0.04    0.02    0.00    0.01    0.00    0.00    0.00    0.00    0.00    0.00    0.27    0.06    0.09    0.07    0.03    0.02       0
 2015 282   108    2127   0.076    1853   0.066    5552       0    5552     530    1062    1602    1178    1180       0      41       6      13      21       1       1    1345     220     441     666       9       9    4165     304     609     915    1168    1170    0.00    0.28    0.06    0.09    0.07    0.04    0.02    0.00    0.01    0.00    0.00    0.00    0.00    0.00    0.00    0.27    0.06    0.08    0.07    0.03    0.02       0
 2015 283   109    2126   0.076    1853   0.066    5551       0    5551     530    1062    1601    1178    1180       0      41       6      13      21       1       1    1345     220     441     665       9       9    4165     304     609     915    1168    1170    0.00    0.28    0.06    0.09    0.07    0.04    0.02    0.00    0.01    0.00    0.00    0.00    0.00    0.00    0.00    0.27    0.06    0.08    0.07    0.03    0.02       0
 2015 284   110    2125   0.076    1852   0.066    5550       0    5550     530    1062    1601    1178    1179       0      41       6      12      21       1       1    1344     220     440     665       9       9    4165     304     609     915    1168    1170    0.00    0.28    0.06    0.09    0.07    0.04    0.02    0.00    0.01    0.00    0.00    0.00    0.00    0.00    0.00    0.27    0.06    0.08    0.07    0.03    0.02       0
 2015 285   111    2125   0.076    1852   0.066    5549       0    5549     530    1061    1600    1178    1179       0      40       6      12      21       1       1    1343     220     440     665       9       9    4165     304     609     915    1168    1170    0.00    0.28    0.06    0.09    0.07    0.04    0.02    0.00    0.01    0.00    0.00    0.00    0.00    0.00    0.00    0.27    0.06    0.08    0.07    0.03    0.02       0
 2015 286   112    2124   0.076    1852   0.066    5548       0    5548     530    1061    1600    1178    1179       0      40       6      12      21       1       1    1342     220     440     664       9       9    4165     304     609     915    1168    1170    0.00    0.27    0.06    0.08    0.07    0.04    0.02    0.00    0.01    0.00    0.00    0.00    0.00    0.00    0.00    0.27    0.06    0.08    0.07    0.03    0.02       0
 2015 287   113    2123   0.076    1851   0.066    5547       0    5547     530    1061    1599    1178    1179       0      40       6      12      20       1       1    1341     220     440     664       9       9    4165     304     609     915    1168    1170    0.00    0.27    0.06    0.08    0.07    0.04    0.02    0.00    0.01    0.00    0.00    0.00    0.00    0.00    0.00    0.27    0.06    0.08    0.07    0.03    0.02       0
 2015 288   114    2123   0.076    1851   0.066    5546       0    5546     529    1060    1599    1178    1179       0      40       6      12      20       1       1    1341     220     439     663       9       9    4165     304     609     915    1168    1170    0.00    0.27    0.06    0.08    0.07    0.03    0.02    0.00    0.01    0.00    0.00    0.00    0.00    0.00    0.00    0.26    0.06    0.08    0.07    0.03    0.02       0
 2015 289   115    2122   0.076    1851   0.066    5545       0    5545     529    1060    1598    1178    1179       0      40       6      12      20       1       1    1340     220     439     663       9       9    4165     304     609     915    1168    1170    0.00    0.27    0.06    0.08    0.07    0.03    0.02    0.00    0.01    0.00    0.00    0.00    0.00    0.00    0.00    0.26    0.06    0.08    0.07    0.03    0.02       0
 2015 290   116    2121   0.076    1850   0.066    5544       0    5544     529    1060    1598    1178    1179       0      39       6      12      20       1       1    1339     219     439     663       9       9    4165     304     609     915    1168    1170    0.00    0.27    0.06    0.08    0.07    0.03    0.02    0.00    0.01    0.00    0.00    0.00    0.00    0.00    0.00    0.26    0.06    0.08    0.07    0.03    0.02       0
 2015 291   117    2121   0.076    1850   0.066    5543       0    5543     529    1059    1598    1178    1179       0      39       6      12      20       1       1    1338     219     439     662       9       9    4165     304     609     915    1168    1170    0.00    0.27    0.06    0.08    0.07    0.03    0.02    0.00    0.00    0.00    0.00    0.00    0.00    0.00    0.00    0.26    0.06    0.08    0.07    0.03    0.02       0
 2015 292   118    2120   0.076    1850   0.066    5542       0    5542     529    1059    1597    1178    1179       0      39       6      12      20       1       1    1338     219     438     662       9       9    4165     304     609     915    1168    1170    0.00    0.26    0.06    0.08    0.07    0.03    0.02    0.00    0.00    0.00    0.00    0.00    0.00    0.00    0.00    0.26    0.06    0.08    0.07    0.03    0.02       0
 2015 293   119    2120   0.076    1849   0.066    5541       0    5541     529    1059    1597    1177    1179       0      39       6      12      20       1       1    1337     219     438     662       9       9    4165     304     609     915    1168    1170    0.00    0.26    0.06    0.08    0.07    0.03    0.02    0.00    0.00    0.00    0.00    0.00    0.00    0.00    0.00    0.26    0.06    0.08    0.07    0.03    0.02       0
 2015 294   120    2119   0.076    1849   0.066    5540       0    5540     529    1058    1596    1177    1179       0      39       6      12      20       1       1    1337     219     438     661       9       9    4165     304     609     915    1168    1170    0.00    0.26    0.06    0.08    0.07    0.03    0.02    0.00    0.00    0.00    0.00    0.00    0.00    0.00    0.00    0.26    0.06    0.08    0.07    0.03    0.02       0
 2015 295   121    2119   0.076    1849   0.066    5539       0    5539     528    1058    1596    1177    1179       0      39       6      12      20       1       1    1336     219     438     661       9       9    4165     304     609     915    1168    1170    0.00    0.26    0.06    0.08    0.07    0.03    0.02    0.00    0.00    0.00    0.00    0.00    0.00    0.00    0.00    0.26    0.06    0.08    0.07    0.03    0.02       0
 2015 296   122    2118   0.076    1849   0.066    5539       0    5539     528    1058    1596    1177    1179       0      38       6      12      20       1       1    1335     219     438     661       9       9    4165     304     609     915    1168    1170    0.00    0.26    0.06    0.08    0.07    0.03    0.02    0.00    0.00    0.00    0.00    0.00    0.00    0.00    0.00    0.26    0.06    0.08    0.07    0.03    0.02       0
 2015 297   123    2118   0.076    1848   0.066    5538       0    5538     528    1058    1595    1177    1179       0      38       6      12      20       1       1    1335     219     437     661       9       9    4165     304     609     915    1168    1170    0.00    0.26    0.06    0.08    0.07    0.03    0.02    0.00    0.00    0.00    0.00    0.00    0.00    0.00    0.00    0.26    0.06    0.08    0.07    0.03    0.02       0
 2015 298   124    2117   0.076    1848   0.066    5537       0    5537     528    1058    1595    1177    1179       0      38       6      12      20       1       1    1334     219     437     660       9       9    4165     304     609     915    1168    1170    0.00    0.26    0.06    0.08    0.07    0.03    0.02    0.00    0.00    0.00    0.00    0.00    0.00    0.00    0.00    0.25    0.06    0.08    0.07    0.03    0.02       0
 2015 299   125    2117   0.076    1848   0.066    5537       0    5537     528    1057    1595    1177    1179       0      38       6      12      20       1       1    1334     219     437     660       9       9    4165     304     609     915    1168    1170    0.00    0.26    0.06    0.08    0.07    0.03    0.02    0.00    0.00    0.00    0.00    0.00    0.00    0.00    0.00    0.25    0.06    0.08    0.07    0.03    0.02       0
 2015 300   126    2117   0.076    1848   0.066    5536       0    5536     528    1057    1595    1177    1179       0      38       6      12      20       1       1    1334     219     437     660       9       9    4164     304     609     915    1168    1170    0.00    0.26    0.06    0.08    0.07    0.03    0.02    0.00    0.00    0.00    0.00    0.00    0.00    0.00    0.00    0.25    0.06    0.08    0.07    0.03    0.02       0
 2015 301   127    2116   0.076    1848   0.066    5536       0    5536     528    1057    1594    1177    1179       0      38       6      11      20       1       1    1333     219     437     660       9       9    4164     304     609     915    1168    1170    0.00    0.26    0.06    0.08    0.07    0.03    0.02    0.00    0.00    0.00    0.00    0.00    0.00    0.00    0.00    0.25    0.06    0.08    0.07    0.03    0.02       0
 2015 302   128    2116   0.076    1848   0.066    5535       0    5535     528    1057    1594    1177    1179       0      38       6      11      20       1       1    1333     219     437     660       9       9    4164     304     609     915    1168    1170    0.00    0.25    0.06    0.08    0.07    0.03    0.02    0.00    0.00    0.00    0.00    0.00    0.00    0.00    0.00    0.25    0.06    0.08    0.07    0.03    0.02       0
 2015 303   129    2116   0.076    1847   0.066    5535       0    5535     528    1057    1594    1177    1179       0      38       6      11      20       1       1    1332     218     437     659       9       9    4164     304     609     915    1168    1170    0.00    0.25    0.06    0.08    0.07    0.03    0.02    0.00    0.00    0.00    0.00    0.00    0.00    0.00    0.00    0.25    0.06    0.08    0.07    0.03    0.02       0
 2015 304   130    2115   0.076    1847   0.066    5534       0    5534     528    1057    1594    1177    1179       0      38       6      11      20       1       1    1332     218     436     659       9       9    4164     304     609     915    1168    1170    0.00    0.25    0.06    0.08    0.07    0.03    0.02    0.00    0.00    0.00    0.00    0.00    0.00    0.00    0.00    0.25    0.06    0.08    0.07    0.03    0.02       0
 2015 305   131    2115   0.076    1847   0.066    5534       0    5534     527    1056    1594    1177    1179       0      38       6      11      19       1       0    1332     218     436     659       9       9    4164     304     609     915    1168    1169    0.00    0.25    0.06    0.08    0.07    0.03    0.02    0.00    0.00    0.00    0.00    0.00    0.00    0.00    0.00    0.25    0.06    0.08    0.07    0.03    0.02       0
 2015 306   132    2115   0.076    1847   0.066    5533       0    5533     527    1056    1594    1177    1179       0      38       6      11      19       1       0    1331     218     436     659       9       9    4164     304     609     915    1168    1169    0.00    0.25    0.06    0.08    0.07    0.03    0.02    0.00    0.00    0.00    0.00    0.00    0.00    0.00    0.00    0.25    0.06    0.08    0.07    0.03    0.02       0
 2015 307   133    2114   0.076    1847   0.066    5533       0    5533     527    1056    1594    1177    1179       0      37       6      11      19       1       0    1331     218     436     659       9       9    4164     304     609     915    1168    1169    0.00    0.25    0.06    0.08    0.07    0.03    0.02    0.00    0.00    0.00    0.00    0.00    0.00    0.00    0.00    0.25    0.06    0.08    0.07    0.03    0.02       0
 2015 308   134    2114   0.076    1847   0.066    5533       0    5533     527    1056    1593    1177    1179       0      37       6      11      19       1       0    1331     218     436     659       9       9    4164     304     609     915    1168    1169    0.00    0.25    0.06    0.08    0.07    0.03    0.02    0.00    0.00    0.00    0.00    0.00    0.00    0.00    0.00    0.25    0.06    0.08    0.07    0.03    0.02       0
 2015 309   135    2114   0.075    1847   0.066    5532       0    5532     527    1056    1593    1177    1179       0      37       6      11      19       1       0    1330     218     436     659       9       9    4164     304     609     915    1168    1169    0.00    0.25    0.06    0.08    0.07    0.03    0.02    0.00    0.00    0.00    0.00    0.00    0.00    0.00    0.00    0.25    0.06    0.08    0.07    0.03    0.02       0
 2015 310   136    2114   0.075    1847   0.066    5532       0    5532     527    1056    1593    1177    1179       0      37       6      11      19       1       0    1330     218     436     659       9       9    4164     304     609     915    1168    1169    0.00    0.25    0.06    0.08    0.07    0.03    0.02    0.00    0.00    0.00    0.00    0.00    0.00    0.00    0.00    0.25    0.06    0.08    0.07    0.03    0.02       0
 2015 311   137    2113   0.075    1847   0.066    5532       0    5532     527    1056    1593    1177    1179       0      37       6      11      19       1       0    1330     218     436     659       9       9    4164     304     609     915    1168    1169    0.00    0.25    0.06    0.08    0.07    0.03    0.02    0.00    0.00    0.00    0.00    0.00    0.00    0.00    0.00    0.25    0.06    0.08    0.07    0.03    0.02       0
 2015 312   138    2113   0.075    1847   0.066    5532       0    5532     527    1056    1593    1177    1179       0      37       6      11      19       1       0    1330     218     436     659       9       9    4164     304     609     915    1167    1169    0.00    0.25    0.06    0.08    0.07    0.03    0.02    0.00    0.00    0.00    0.00    0.00    0.00    0.00    0.00    0.25    0.06    0.08    0.07    0.03    0.02       0
 2015 313   139    2113   0.075    1847   0.066    5531       0    5531     527    1055    1593    1177    1179       0      37       6      11      19       1       0    1330     218     436     658       9       9    4164     304     609     915    1167    1169    0.00    0.25    0.06    0.08    0.07    0.03    0.02    0.00    0.00    0.00    0.00    0.00    0.00    0.00    0.00    0.25    0.06    0.08    0.07    0.03    0.02       0
 2015 314   140    2113   0.075    1847   0.066    5531       0    5531     527    1055    1593    1177    1179       0      37       6      11      19       1       0    1330     218     435     658       9       9    4164     304     609     915    1167    1169    0.00    0.25    0.06    0.08    0.07    0.03    0.02    0.00    0.00    0.00    0.00    0.00    0.00    0.00    0.00    0.25    0.06    0.08    0.07    0.03    0.02       0
 2015 315   141    2113   0.075    1847   0.066    5531       0    5531     527    1055    1593    1177    1179       0      37       6      11      19       1       0    1329     218     435     658       9       9    4164     304     609     915    1167    1169    0.00    0.25    0.06    0.08    0.07    0.03    0.02    0.00    0.00    0.00    0.00    0.00    0.00    0.00    0.00    0.25    0.06    0.08    0.07    0.03    0.02       0
 2015 316   142    2113   0.075    1847   0.066    5531       0    5531     527    1055    1593    1177    1179       0      37       6      11      19       1       0    1329     218     435     658       9       9    4164     304     609     915    1167    1169    0.00    0.25    0.06    0.08    0.07    0.03    0.02    0.00    0.00    0.00    0.00    0.00    0.00    0.00    0.00    0.25    0.06    0.08    0.07    0.03    0.02       0
 2015 317   143    2113   0.075    1847   0.066    5531       0    5531     527    1055    1593    1177    1179       0      37       6      11      19       1       0    1329     218     435     658       9       9    4164     304     609     915    1167    1169    0.00    0.25    0.06    0.08    0.07    0.03    0.02    0.00    0.00    0.00    0.00    0.00    0.00    0.00    0.00    0.25    0.06    0.08    0.07    0.03    0.02       0
 2015 318   144    2113   0.075    1846   0.066    5531       0    5531     527    1055    1593    1177    1179       0      37       6      11      19       1       0    1329     218     435     658       9       9    4164     304     609     915    1167    1169    0.00    0.25    0.06    0.08    0.07    0.03    0.02    0.00    0.00    0.00    0.00    0.00    0.00    0.00    0.00    0.25    0.06    0.08    0.07    0.03    0.02       0
 2015 319   145    2113   0.075    1846   0.066    5530       0    5530     527    1055    1593    1177    1179       0      37       6      11      19       1       0    1329     218     435     658       9       9    4164     304     609     915    1167    1169    0.00    0.25    0.06    0.08    0.07    0.03    0.02    0.00    0.00    0.00    0.00    0.00    0.00    0.00    0.00    0.24    0.06    0.08    0.07    0.03    0.02       0
 2015 320   146    2112   0.075    1846   0.066    5530       0    5530     527    1055    1593    1177    1179       0      37       6      11      19       1       0    1329     218     435     658       9       9    4164     304     609     915    1167    1169    0.00    0.25    0.06    0.08    0.07    0.03    0.02    0.00    0.00    0.00    0.00    0.00    0.00    0.00    0.00    0.24    0.06    0.08    0.06    0.03    0.02       0
 2015 321   147    2112   0.075    1846   0.066    5530       0    5530     527    1055    1593    1177    1179       0      37       6      11      19       1       0    1329     218     435     658       9       9    4164     304     609     915    1167    1169    0.00    0.25    0.06    0.08    0.07    0.03    0.02    0.00    0.00    0.00    0.00    0.00    0.00    0.00    0.00    0.24    0.06    0.08    0.06    0.03    0.02       0
