*SIMULATION OVERVIEW FILE

*DSSAT Cropping System Model Ver. 4.7.2.000 -release      OCT 15, 2021; 17:59:33
                                                                                
*RUN   1        :             CSM335_date_1 MZCER047 ITSA1301    1              
 MODEL          : MZCER047 - Maize                                              
 EXPERIMENT     : ITSA1301 SG CALIBRATION SETUP OF SORGHUM SOWING DATES         
 DATA PATH      :                                                               
 TREATMENT  1   :             CSM335_date_1 MZCER047                            
                                                                                
                                                                                
 CROP           : Maize            CULTIVAR : APPOLO(ETH)      ECOTYPE :IB0006  
 STARTING DATE  : JUN  5 2013                                                   
 PLANTING DATE  : JUN  7 2013        PLANTS/m2 :  4.1     ROW SPACING :  75.cm  
 HARVEST DATE   : DEC 29 2013                                                   
 WEATHER        : ETBA   2013                                                   
 SOIL           : XXETBA0101     TEXTURE : SL    -                              
 SOIL INITIAL C : DEPTH:120cm EXTR. H2O:156.0mm  NO3:  0.0kg/ha  NH4: 10.2kg/ha 
 WATER BALANCE  : RAINFED                                                       
 IRRIGATION     : NOT IRRIGATED                                                 
 NITROGEN BAL.  : SOIL-N & N-UPTAKE SIMULATION; NO N-FIXATION                   
 N-FERTILIZER   :       87 kg/ha IN     3 APPLICATIONS                          
 RESIDUE/MANURE : INITIAL :     0 kg/ha ;       0 kg/ha IN     0 APPLICATIONS   
 ENVIRONM. OPT. : DAYL=    0.00  SRAD=    0.00  TMAX=    0.00  TMIN=    0.00    
                  RAIN=    0.00  CO2 =    0.00  DEW =    0.00  WIND=    0.00    
 SIMULATION OPT : WATER   :Y  NITROGEN:Y  N-FIX:N  PHOSPH :N  PESTS  :N         
                  PHOTO   :R  ET      :R  INFIL:S  HYDROL :R  SOM    :P         
                  CO2 396ppm  NSWIT   :1  EVAP :S  SOIL   :2  STEMP  :D         
 MANAGEMENT OPT : PLANTING:R  IRRIG   :N  FERT :R  RESIDUE:N  HARVEST:R         
                  WEATHER :M  TILLAGE :N                                        
                                                                                
*SUMMARY OF SOIL AND GENETIC INPUT PARAMETERS                                   
                                                                                
   SOIL LOWER UPPER   SAT  EXTR  INIT   ROOT   BULK     pH    NO3    NH4    ORG 
  DEPTH LIMIT LIMIT    SW    SW    SW   DIST   DENS                          C  
   cm   cm3/cm3    cm3/cm3    cm3/cm3         g/cm3         ugN/g  ugN/g     %  
------------------------------------------------------------------------------- 
  0-  5 0.243 0.373 0.445 0.130 0.240   1.00   1.42   5.00   0.00   0.60   1.80 
  5- 15 0.243 0.373 0.445 0.130 0.240   1.00   1.42   5.00   0.00   0.60   1.80 
 15- 30 0.243 0.373 0.445 0.130 0.240   1.00   1.42   5.00   0.00   0.60   1.80 
 30- 60 0.243 0.373 0.445 0.130 0.240   1.00   1.42   5.00   0.00   0.60 -99.00 
 60- 90 0.243 0.373 0.445 0.130 0.240   1.00   1.42   5.00   0.00   0.60 -99.00 
 90-120 0.243 0.373 0.445 0.130 0.240   1.00   1.42   5.00   0.00   0.60 -99.00 
                                                                                
TOT-120  29.2  44.8  53.4  15.6  28.8  <--cm   -  kg/ha-->    0.0   10.2  76680 
SOIL ALBEDO    : 0.20      EVAPORATION LIMIT : 6.00         MIN. FACTOR  : 1.00 
RUNOFF CURVE # :30.00      DRAINAGE RATE     : 0.60         FERT. FACTOR : 1.00 
                                                                                
 Maize      CULTIVAR :IM0006-APPOLO(ETH)        ECOTYPE :IB0006                 
 P1     : 340.00  P2     : 0.4000  P5     : 580.00                              
 G2     : 455.00  G3     : 13.000  PHINT  : 70.000                              


*SIMULATED CROP AND SOIL STATUS AT MAIN DEVELOPMENT STAGES

 RUN NO.     1                 CSM335_date_

        CROP GROWTH     BIOMASS         LEAF   CROP N     STRESS      STRESS                                           
   DATE  AGE STAGE        kg/ha    LAI   NUM  kg/ha  %   H2O  Nitr Phos1 Phos2  RSTG                                   
 ------  --- ----------   -----  -----  ----  ---  ---  ----  ----  ----  ----  ----                                   
  5 JUN    0 Start Sim        0   0.00   0.0    0  0.0  0.00  0.00  0.00  0.00     7
  7 JUN    0 Sowing           0   0.00   0.0    0  0.0  0.00  0.00  0.00  0.00     8
  8 JUN    1 Germinate        0   0.00   0.0    0  0.0  0.00  0.00  0.00  0.00     9
 13 JUN    6 Emergence       16   0.00   1.8    1  4.4  0.00  0.01  0.00  0.00     1
  6 JUL   29 End Juveni      68   0.14   7.2    3  3.7  0.00  0.00  0.00  0.00     2
 11 JUL   34 Floral Ini     117   0.23   8.3    4  3.6  0.00  0.00  0.00  0.00     3
  9 SEP   94 75% Silkin    4186   2.10  17.7   82  2.0  0.02  0.00  0.00  0.00     4
 23 SEP  108 Beg Gr Fil    7139   1.95  17.7   83  1.2  0.00  0.00  0.00  0.00     5
 23 OCT  138 End Gr Fil   12100   0.90  17.7  126  1.0  0.00  0.00  0.00  0.00     6
 25 OCT  140 Maturity     12100   0.90  17.7  126  1.0  0.30  0.00  0.00  0.00    10
 29 DEC  205 Harvest      12100   0.90  17.7  126  1.0  0.30  0.00  0.00  0.00    10


*MAIN GROWTH AND DEVELOPMENT VARIABLES

@     VARIABLE                                         SIMULATED     MEASURED
      --------                                         ---------     --------
      Anthesis day (dap)                                      94          -99
      Physiological maturity day (dap)                       140          -99
      Yield at harvest maturity (kg [dm]/ha)                5132          -99
      Number at maturity (no/m2)                            1316          -99
      Unit wt at maturity (g [dm]/unit)                   0.3900          -99
      Number at maturity (no/unit)                         320.9          -99
      Tops weight at maturity (kg [dm]/ha)                 12100          -99
      By-product produced (stalk) at maturity (kg[dm]/ha    7004          -99
      Leaf area index, maximum                              2.15          -99
      Harvest index at maturity                            0.424          -99
      Grain N at maturity (kg/ha)                             87          -99
      Tops N at maturity (kg/ha)                             126          -99
      Stem N at maturity (kg/ha)                              39          -99
      Grain N at maturity (%)                                1.7          -99
      Tops weight at anthesis (kg [dm]/ha)                  4004          -99
      Tops N at anthesis (kg/ha)                              79          -99
      Leaf number per stem at maturity                     17.66          -99
      Emergence day (dap)                                      6          -99


*ENVIRONMENTAL AND STRESS FACTORS

 |-----Development Phase------|--------------------------------------Environment--------------------------------------|-----------------Stress-----------------|
                              |---------------Average--------------|-----Cumulative-----|--------Count of days--------|          (0=Min, 1=Max Stress)         |
                         Time  Temp  Temp  Temp Solar Photop                Evapo    Pot TMIN TMIN TMAX TMAX TMAX RAIN|----Water----|---Nitrogen--|-Phosphorus-|
                         Span   Max   Min  Mean   Rad  [day]    CO2   Rain  Trans     ET   <    <    >    >    >    >   Photo         Photo         Photo
                         days    øC    øC    øC MJ/m2     hr    ppm     mm     mm     mm  0øC  2øC 30øC 32øC 34øC  0mm  synth Growth  synth Growth  synth Growth
----------------------------------------------------------------------------------------------------------------------------------------------------------------
 Emergence-End Juvenile    23  28.3  14.8  21.5  19.1  12.53  396.4  160.6   94.5  109.5    0    0    2    0    0   16  0.000  0.000  0.002  0.006  0.000  0.000
 End Juvenil-Floral Init    5  29.5  13.8  21.6  16.5  12.51  396.4    9.6   17.4   20.5    0    0    2    0    0    2  0.000  0.000  0.000  0.001  0.000  0.000
 Floral Init-End Lf Grow   60  28.8  13.6  21.2  15.4  12.33  396.7  162.0  173.0  213.7    0    0   24    0    0   23  0.010  0.023  0.000  0.000  0.000  0.000
 End Lf Grth-Beg Grn Fil   14  26.3  15.3  20.8  20.0  12.05  396.9   61.7   62.2   62.6    0    0    0    0    0   10  0.000  0.000  0.000  0.000  0.000  0.000
 Grain Filling Phase       30  26.9  14.1  20.5  20.9  11.86  397.1   74.7  128.6  140.6    0    0    1    0    0   11  0.000  0.000  0.000  0.000  0.000  0.000
   
 Planting to Harvest      205  28.0  14.0  21.0  19.1  12.02  396.9  524.7  575.3  901.4    0    0   29    0    0   73  0.003  0.105  0.000  0.001  0.000  0.000
----------------------------------------------------------------------------------------------------------------------------------------------------------------


*Resource Productivity
 Growing season length: 205 days 

 Precipitation during growing season       524.7 mm[rain]
   Dry Matter Productivity                  2.31 kg[DM]/m3[rain]          =   23.1 kg[DM]/ha per mm[rain]
   Yield Productivity                       0.98 kg[grain yield]/m3[rain] =    9.8 kg[yield]/ha per mm[rain]

 Evapotranspiration during growing season  575.3 mm[ET]
   Dry Matter Productivity                  2.10 kg[DM]/m3[ET]            =   21.0 kg[DM]/ha per mm[ET]
   Yield Productivity                       0.89 kg[grain yield]/m3[ET]   =    8.9 kg[yield]/ha per mm[ET]

 Transpiration during growing season       292.2 mm[EP]
   Dry Matter Productivity                  4.14 kg[DM]/m3[EP]            =   41.4 kg[DM]/ha per mm[EP]
   Yield Productivity                       1.76 kg[grain yield]/m3[EP]   =   17.6 kg[yield]/ha per mm[EP]

 N applied during growing season             86. kg[N applied]/ha
   Dry Matter Productivity                 140.7 kg[DM]/kg[N applied]
   Yield Productivity                       59.7 kg[yield]/kg[N applied]

 N uptake during growing season              155 kg[N uptake]/ha
   Dry Matter Productivity                  78.1 kg[DM]/kg[N uptake]
   Yield Productivity                       33.1 kg[yield]/kg[N uptake]

--------------------------------------------------------------------------------------------------------------

                     Maize YIELD :     5132 kg/ha    [Dry weight] 

**************************************************************************************************************
