*GROWTH ASPECTS OUTPUT FILE

*DSSAT Cropping System Model Ver. 4.7.2.000 -release      OCT 15, 2021; 17:59:33
                                                                                
*RUN   1        :             CSM335_date_1 MZCER047 ITSA1301    1              
 MODEL          : MZCER047 - Maize                                              
 EXPERIMENT     : ITSA1301 SG CALIBRATION SETUP OF SORGHUM SOWING DATES         
 DATA PATH      :                                                               
 TREATMENT  1   :             CSM335_date_1 MZCER047                            
  
!                                                                                                                                                                                                                                      Root Dens. (cm/cm3) by soil depth (cm):
!                                                                                                                                                                                                                                      0-5    5-15   15-30   30-60   60-90  90-120
@YEAR DOY   DAS   DAP   L#SD   GSTD   LAID   LWAD   SWAD   GWAD   RWAD   VWAD   CWAD   G#AD   GWGD   HIAD   PWAD   P#AD   WSPD   WSGD   NSTD   EWSD  PST1A  PST2A   KSTD   LN%D   SH%D   HIPD   PWDD   PWTD     SLAD   CHTD   CWID   RDPD    RL1D    RL2D    RL3D    RL4D    RL5D    RL6D   CDAD   LDAD   SDAD   SNW0C   SNW1C  DTTD
 2013 158     3     0    0.0      0   0.00      0      0      0      0      0      0      0    0.0  0.000      0      0  0.000  0.000  0.000  0.000  0.000  0.000  0.000   0.00   0.00   0.00      0      0      0.0   0.00   0.00   0.03    0.00    0.00    0.00    0.00    0.00    0.00      0      0      0       0       0 13.90
 2013 159     4     1    0.0      0   0.00      0      0      0      0      0      0      0    0.0  0.000      0      0  0.000  0.000  0.000  0.000  0.000  0.000  0.000   0.00   0.00   0.00      0      0      0.0   0.00   0.00   0.05    0.00    0.00    0.00    0.00    0.00    0.00      0      0      0       0       0 15.06
 2013 160     5     2    0.0      0   0.00      0      0      0      0      0      0      0    0.0  0.000      0      0  0.000  0.000  0.000  0.000  0.000  0.000  0.000   0.00   0.00   0.00      0      0      0.0   0.00   0.00   0.07    0.00    0.00    0.00    0.00    0.00    0.00      0      0      0       0       0 14.22
 2013 161     6     3    0.0      0   0.00      0      0      0      0      0      0      0    0.0  0.000      0      0  0.000  0.000  0.000  0.000  0.000  0.000  0.000   0.00   0.00   0.00      0      0      0.0   0.00   0.00   0.09    0.00    0.00    0.00    0.00    0.00    0.00      0      0      0       0       0 13.33
 2013 162     7     4    0.0      0   0.00      0      0      0      0      0      0      0    0.0  0.000      0      0  0.000  0.000  0.000  0.000  0.000  0.000  0.000   0.00   0.00   0.00      0      0      0.0   0.00   0.00   0.12    0.00    0.00    0.00    0.00    0.00    0.00      0      0      0       0       0 15.08
 2013 163     8     5    0.0      0   0.00      0      0      0      0      0      0      0    0.0  0.000      0      0  0.000  0.000  0.000  0.000  0.000  0.000  0.000   0.00   0.00   0.00      0      0      0.0   0.00   0.00   0.14    0.00    0.00    0.00    0.00    0.00    0.00      0      0      0       0       0 14.80
 2013 164     9     6    1.0      1   0.00      8      8      0      8     16     16      0    0.0  0.000      0      0  0.000  0.000  0.012  0.000  0.000  0.000  0.000   4.40   0.00   0.00      0      0     14.9   0.00   0.00   0.15    0.16    0.07    0.00    0.00    0.00    0.00      0      0      0       0       0 13.45
 2013 165    10     7    2.0      1   0.00      8      8      0      8     16     16      0    0.0  0.000      0      0  0.000  0.000  0.015  0.000  0.000  0.000  0.000   4.40   0.00   0.00      0      0     26.7   0.00   0.00   0.17    0.16    0.07    0.00    0.00    0.00    0.00      0      0      0       0       0 14.33
 2013 166    11     8    2.0      1   0.00      8      8      0      8     16     16      0    0.0  0.000      0      0  0.000  0.000  0.012  0.000  0.000  0.000  0.000   4.40   0.00   0.00      0      0     39.5   0.00   0.00   0.18    0.17    0.07    0.00    0.00    0.00    0.00      0      0      0       0       0 13.99
 2013 167    12     9    2.0      1   0.00      8      8      0      9     16     16      0    0.0  0.000      0      0  0.000  0.000  0.008  0.000  0.000  0.000  0.000   4.40   0.00   0.00      0      0     53.3   0.00   0.00   0.19    0.17    0.08    0.00    0.00    0.00    0.00      0      0      0       0       0 13.95
 2013 168    13    10    2.0      1   0.01      8      8      0      9     16     16      0    0.0  0.000      0      0  0.000  0.000  0.004  0.000  0.000  0.000  0.000   4.40   0.00   0.00      0      0     69.8   0.00   0.00   0.21    0.17    0.08    0.00    0.00    0.00    0.00      0      0      0       0       0 15.38
 2013 169    14    11    3.0      1   0.01      8      8      0     10     16     16      0    0.0  0.000      0      0  0.000  0.000  0.000  0.000  0.000  0.000  0.000   4.40   0.00   0.00      0      0     86.1   0.01   0.00   0.22    0.18    0.09    0.00    0.00    0.00    0.00      0      0      0       0       0 14.28
 2013 170    15    12    3.0      1   0.01      8      8      0     10     16     16      0    0.0  0.000      0      0  0.000  0.000  0.000  0.000  0.000  0.000  0.000   4.40   0.00   0.00      0      0    102.8   0.01   0.00   0.24    0.19    0.09    0.00    0.00    0.00    0.00      0      0      0       0       0 13.85
 2013 171    16    13    3.0      1   0.01      8      8      0     11     16     16      0    0.0  0.000      0      0  0.000  0.000  0.000  0.000  0.000  0.000  0.000   4.40   0.00   0.00      0      0    122.5   0.01   0.00   0.25    0.19    0.10    0.01    0.00    0.00    0.00      0      0      0       0       0 15.44
 2013 172    17    14    3.0      1   0.01      8      8      0     13     16     16      0    0.0  0.000      0      0  0.000  0.000  0.000  0.000  0.000  0.000  0.000   4.40   0.00   0.00      0      0    142.8   0.01   0.00   0.27    0.20    0.11    0.01    0.00    0.00    0.00      0      0      0       0       0 15.22
 2013 173    18    15    4.0      1   0.02      8      8      0     14     16     16      0    0.0  0.000      0      0  0.000  0.000  0.000  0.000  0.000  0.000  0.000   4.40   0.00   0.00      0      0    209.1   0.01   0.00   0.28    0.21    0.12    0.02    0.00    0.00    0.00      0      0      0       0       0 15.20
 2013 174    19    16    4.0      1   0.02      8      8      0     16     16     16      0    0.0  0.000      0      0  0.000  0.000  0.000  0.000  0.000  0.000  0.000   4.40   0.00   0.00      0      0    282.1   0.02   0.00   0.30    0.23    0.13    0.03    0.00    0.00    0.00      0      0      0       0       0 15.21
 2013 175    20    17    4.0      1   0.03      9      8      0     18     17     17      0    0.0  0.000      0      0  0.000  0.000  0.000  0.000  0.000  0.000  0.000   4.11   0.00   0.00      0      0    338.3   0.02   0.00   0.31    0.24    0.14    0.04    0.00    0.00    0.00      0      0      0       0       0 15.14
 2013 176    21    18    4.0      1   0.04     11      8      0     20     19     19      0    0.0  0.000      0      0  0.000  0.000  0.000  0.000  0.000  0.000  0.000   3.61   0.00   0.00      0      0    320.1   0.03   0.00   0.33    0.25    0.15    0.05    0.00    0.00    0.00      0      0      0       0       0 15.39
 2013 177    22    19    5.0      1   0.04     15      8      0     22     23     23      0    0.0  0.000      0      0  0.000  0.000  0.000  0.000  0.000  0.000  0.000   3.55   0.00   0.00      0      0    303.7   0.03   0.00   0.34    0.27    0.17    0.06    0.00    0.00    0.00      0      0      0       0       0 16.55
 2013 178    23    20    5.0      1   0.05     18      8      0     25     26     26      0    0.0  0.000      0      0  0.000  0.000  0.000  0.000  0.000  0.000  0.000   3.56   0.00   0.00      0      0    290.2   0.04   0.00   0.36    0.29    0.19    0.08    0.00    0.00    0.00      0      0      0       0       0 16.01
 2013 179    24    21    5.0      1   0.06     21      8      0     30     29     29      0    0.0  0.000      0      0  0.000  0.000  0.000  0.000  0.000  0.000  0.000   3.68   0.00   0.00      0      0    281.1   0.05   0.00   0.38    0.33    0.22    0.11    0.00    0.00    0.00      0      0      0       0       0 12.35
 2013 180    25    22    5.0      1   0.07     25      8      0     34     33     33      0    0.0  0.000      0      0  0.000  0.000  0.000  0.000  0.000  0.000  0.000   3.59   0.00   0.00      0      0    271.3   0.05   0.00   0.40    0.36    0.25    0.13    0.00    0.00    0.00      0      0      0       0       1 14.74
 2013 181    26    23    6.0      1   0.08     29      8      0     39     38     38      0    0.0  0.000      0      0  0.000  0.000  0.000  0.000  0.000  0.000  0.000   3.59   0.00   0.00      0      0    262.6   0.06   0.00   0.42    0.39    0.29    0.16    0.00    0.00    0.00      0      0      0       0       1 14.46
 2013 182    27    24    6.0      1   0.09     34      8      0     45     42     42      0    0.0  0.000      0      0  0.000  0.000  0.000  0.000  0.000  0.000  0.000   3.60   0.00   0.00      0      0    255.1   0.07   0.00   0.44    0.44    0.33    0.19    0.00    0.00    0.00      0      0      0       0       1 13.80
 2013 183    28    25    6.0      1   0.10     39      8      0     52     47     47      0    0.0  0.000      0      0  0.000  0.000  0.000  0.000  0.000  0.000  0.000   3.54   0.00   0.00      0      0    247.5   0.07   0.00   0.47    0.47    0.36    0.23    0.01    0.00    0.00      0      0      0       0       1 15.06
 2013 184    29    26    6.0      1   0.11     44      8      0     60     52     52      0    0.0  0.000      0      0  0.000  0.000  0.000  0.000  0.000  0.000  0.000   3.58   0.00   0.00      0      0    241.2   0.08   0.00   0.50    0.50    0.40    0.27    0.02    0.00    0.00      0      0      0       0       1 13.32
 2013 185    30    27    6.0      1   0.12     50      8      0     67     58     58      0    0.0  0.000      0      0  0.000  0.000  0.000  0.007  0.000  0.000  0.000   3.54   0.00   0.00      0      0    235.0   0.09   0.00   0.53    0.53    0.43    0.30    0.04    0.00    0.00      0      0      0       0       2 14.25
 2013 186    31    28    7.0      1   0.13     56      8      0     72     65     65      0    0.0  0.000      0      0  0.000  0.000  0.000  0.000  0.000  0.000  0.000   3.54   0.00   0.00      0      0    229.3   0.10   0.00   0.56    0.55    0.45    0.32    0.05    0.00    0.00      0      0      0       0       2 13.76
 2013 187    32    29    7.0      2   0.14     60      8      0     82     68     68      0    0.0  0.000      0      0  0.000  0.000  0.000  0.000  0.000  0.000  0.000   3.69   0.00   0.00      0      0    241.9   0.11   0.00   0.59    0.59    0.48    0.36    0.08    0.00    0.00      0      0      0       0       2 14.85
 2013 188    33    30    7.0      2   0.16     68      8      0     90     76     76      0    0.0  0.000      0      0  0.000  0.000  0.002  0.000  0.000  0.000  0.000   3.48   0.00   0.00      0      0    235.6   0.12   0.00   0.61    0.62    0.51    0.39    0.10    0.00    0.00      0      0      0       0       3 14.07
 2013 189    34    31    7.0      2   0.18     77      8      0    101     86     86      0    0.0  0.000      0      0  0.000  0.000  0.000  0.000  0.000  0.000  0.000   3.39   0.00   0.00      0      0    229.0   0.14   0.00   0.65    0.66    0.55    0.43    0.13    0.00    0.00      0      0      0       0       3 15.71
 2013 190    35    32    7.0      2   0.19     87      8      0    104     95     95      0    0.0  0.000      0      0  0.000  0.000  0.000  0.000  0.000  0.000  0.000   3.80   0.00   0.00      0      0    223.5   0.15   0.00   0.67    0.67    0.56    0.44    0.14    0.00    0.00      0      0      0       0       4 14.03
 2013 191    36    33    8.0      2   0.21     97      8      0    119    106    106      0    0.0  0.000      0      0  0.000  0.000  0.000  0.000  0.000  0.000  0.000   3.74   0.00   0.00      0      0    218.2   0.16   0.00   0.70    0.73    0.62    0.50    0.18    0.00    0.00      0      0      0       0       4 14.40
 2013 192    37    34    8.0      3   0.23    109      8      0    131    117    117      0    0.0  0.000      0      0  0.000  0.000  0.000  0.000  0.000  0.000  0.000   3.62   0.00   0.00      0      0    211.5   0.18   0.00   0.73    0.77    0.66    0.54    0.21    0.00    0.00      0      0      0       0       5 14.80
 2013 193    38    35    8.0      3   0.25    122      8      0    150    130    130      0    0.0  0.000      0      0  0.000  0.000  0.000  0.000  0.000  0.000  0.000   3.56   0.00   0.00      0      0    207.5   0.19   0.00   0.76    0.84    0.73    0.61    0.25    0.01    0.00      0      0      0       0       6 15.50
 2013 194    39    36    8.0      3   0.28    136      8      0    161    144    144      0    0.0  0.000      0      0  0.000  0.000  0.000  0.000  0.000  0.000  0.000   3.53   0.00   0.00      0      0    203.7   0.21   0.00   0.79    0.89    0.77    0.65    0.28    0.01    0.00      0      0      0       0       6 15.04
 2013 195    40    37    8.0      3   0.30    151      9      0    179    159    159      0    0.0  0.000      0      0  0.000  0.000  0.000  0.000  0.000  0.000  0.000   3.50   0.00   0.00      0      0    200.0   0.23   0.00   0.82    0.95    0.83    0.72    0.32    0.02    0.00      0      0      0       0       7 15.53
 2013 196    41    38    9.0      3   0.33    167      9      0    198    176    176      0    0.0  0.000      0      0  0.000  0.000  0.000  0.000  0.000  0.000  0.000   3.46   0.00   0.00      0      0    196.3   0.25   0.00   0.86    0.98    0.91    0.79    0.37    0.03    0.00      0      0      0       0       8 15.87
 2013 197    42    39    9.0      3   0.35    183      9      0    209    192    192      0    0.0  0.000      0      0  0.000  0.000  0.000  0.000  0.000  0.000  0.000   3.44   0.00   0.00      0      0    193.2   0.27   0.00   0.88    0.98    0.95    0.84    0.40    0.03    0.00      0      0      0       0       9 13.88
 2013 198    43    40    9.0      3   0.38    199     10      0    219    209    209      0    0.0  0.000      0      0  0.000  0.000  0.000  0.000  0.000  0.000  0.000   3.41   0.00   0.00      0      0    190.2   0.29   0.00   0.91    0.97    0.98    0.87    0.43    0.04    0.00      0      0      0       0      10 13.92
 2013 199    44    41    9.0      3   0.40    216     11      0    234    227    227      0    0.0  0.000      0      0  0.000  0.000  0.000  0.000  0.000  0.000  0.000   3.38   0.00   0.00      0      0    187.5   0.31   0.00   0.91    0.97    1.04    0.94    0.47    0.05    0.00      0      0      0       0      11 13.30
 2013 200    45    42    9.0      3   0.43    235     12      0    261    247    247      0    0.0  0.000      0      0  0.000  0.000  0.000  0.000  0.000  0.000  0.000   3.35   0.00   0.00      0      0    184.5   0.33   0.00   0.91    1.06    1.14    1.03    0.53    0.06    0.00      0      0      0       0      12 14.63
 2013 201    46    43   10.0      3   0.46    256     14      0    291    269    269      0    0.0  0.000      0      0  0.000  0.000  0.000  0.000  0.000  0.000  0.000   3.32   0.00   0.00      0      0    181.7   0.36   0.00   0.91    1.17    1.25    1.14    0.60    0.08    0.00      0      0      0       0      14 14.57
 2013 202    47    44   10.0      3   0.50    277     16      0    305    293    293      0    0.0  0.000      0      0  0.000  0.000  0.000  0.000  0.000  0.000  0.000   3.29   0.00   0.00      0      0    179.0   0.38   0.00   0.91    1.22    1.30    1.19    0.63    0.09    0.00      0      0      0       0      15 14.76
 2013 203    48    45   10.0      3   0.53    300     19      0    316    319    319      0    0.0  0.000      0      0  0.000  0.000  0.000  0.000  0.000  0.000  0.000   3.26   0.00   0.00      0      0    176.4   0.41   0.00   0.91    1.26    1.35    1.23    0.66    0.09    0.00      0      0      0       0      17 14.35
 2013 204    49    46   10.0      3   0.56    324     22      0    342    346    346      0    0.0  0.000      0      0  0.000  0.000  0.000  0.000  0.000  0.000  0.000   3.24   0.00   0.00      0      0    173.9   0.43   0.00   0.91    1.36    1.44    1.33    0.71    0.11    0.00      0      0      0       0      18 14.43
 2013 205    50    47   10.0      3   0.60    348     26      0    382    374    374      0    0.0  0.000      0      0  0.000  0.000  0.000  0.000  0.000  0.000  0.000   3.21   0.00   0.00      0      0    171.5   0.46   0.00   0.91    1.53    1.59    1.47    0.80    0.13    0.00      0      0      0       0      20 13.88
 2013 206    51    48   11.0      3   0.63    373     30      0    405    403    403      0    0.0  0.000      0      0  0.000  0.000  0.000  0.000  0.000  0.000  0.000   3.18   0.00   0.00      0      0    169.3   0.49   0.00   0.91    1.59    1.68    1.56    0.86    0.14    0.00      0      0      0       0      22 13.52
 2013 207    52    49   11.0      3   0.67    399     35      0    428    435    435      0    0.0  0.000      0      0  0.000  0.000  0.000  0.000  0.000  0.000  0.000   3.16   0.00   0.00      0      0    167.2   0.51   0.00   0.91    1.58    1.78    1.65    0.91    0.15    0.00      0      0      0       0      24 13.60
 2013 208    53    50   11.0      3   0.70    426     41      0    451    468    468      0    0.0  0.000      0      0  0.000  0.000  0.000  0.000  0.000  0.000  0.000   3.13   0.00   0.00      0      0    165.1   0.54   0.00   0.91    1.57    1.88    1.75    0.97    0.17    0.00      0      0      0       0      26 13.40
 2013 209    54    51   11.0      3   0.74    453     48      0    483    501    501      0    0.0  0.000      0      0  0.000  0.000  0.000  0.000  0.000  0.000  0.000   3.11   0.00   0.00      0      0    163.2   0.57   0.00   0.91    1.57    2.01    1.88    1.05    0.19    0.00      0      0      0       0      28 12.80
 2013 210    55    52   11.0      3   0.78    480     55      0    498    536    536      0    0.0  0.000      0      0  0.000  0.000  0.000  0.000  0.000  0.000  0.000   3.09   0.00   0.00      0      0    161.4   0.60   0.00   0.91    1.56    2.07    1.94    1.08    0.19    0.00      0      0      0       0      31 12.25
 2013 211    56    53   12.0      3   0.82    515     66      0    538    581    581      0    0.0  0.000      0      0  0.000  0.000  0.000  0.000  0.000  0.000  0.000   3.06   0.00   0.00      0      0    159.3   0.63   0.00   0.91    1.55    2.24    2.11    1.18    0.22    0.00      0      0      0       0      33 13.05
 2013 212    57    54   12.0      3   0.87    552     78      0    553    630    630      0    0.0  0.000      0      0  0.000  0.000  0.000  0.000  0.000  0.000  0.000   3.04   0.00   0.00      0      0    157.1   0.67   0.00   0.91    1.54    2.31    2.17    1.22    0.23    0.00      0      0      0       0      36 13.80
 2013 213    58    55   12.0      3   0.91    588     91      0    572    678    678      0    0.0  0.000      0      0  0.000  0.000  0.000  0.000  0.000  0.000  0.000   3.01   0.00   0.00      0      0    155.3   0.70   0.00   0.91    1.53    2.39    2.25    1.27    0.24    0.00      0      0      0       0      39 12.95
 2013 214    59    56   12.0      3   0.96    627    106      0    584    733    733      0    0.0  0.000      0      0  0.000  0.000  0.000  0.000  0.000  0.000  0.000   2.99   0.00   0.00      0      0    153.3   0.74   0.00   0.91    1.53    2.44    2.31    1.30    0.24    0.00      0      0      0       0      42 14.20
 2013 215    60    57   12.0      3   1.01    667    123      0    620    790    790      0    0.0  0.000      0      0  0.000  0.000  0.000  0.000  0.000  0.000  0.000   2.96   0.00   0.00      0      0    151.5   0.78   0.00   0.91    1.52    2.60    2.46    1.38    0.26    0.00      0      0      0       0      44 14.25
 2013 216    61    58   13.0      3   1.06    704    140      0    661    844    844      0    0.0  0.000      0      0  0.000  0.000  0.000  0.000  0.000  0.000  0.000   2.94   0.00   0.00      0      0    150.0   0.81   0.00   0.91    1.51    2.78    2.63    1.48    0.28    0.00      0      0      0       0      48 12.90
 2013 217    62    59   13.0      3   1.10    741    159      0    687    900    900      0    0.0  0.000      0      0  0.000  0.000  0.000  0.000  0.000  0.000  0.000   2.92   0.00   0.00      0      0    148.5   0.85   0.00   0.91    1.50    2.90    2.75    1.54    0.30    0.00      0      0      0       0      51 13.05
 2013 218    63    60   13.0      3   1.15    783    181      0    728    964    964      0    0.0  0.000      0      0  0.000  0.000  0.000  0.000  0.000  0.000  0.000   2.89   0.00   0.00      0      0    146.9   0.88   0.00   0.91    1.49    3.08    2.92    1.63    0.32    0.00      0      0      0       0      54 14.35
 2013 219    64    61   13.0      3   1.20    821    203      0    740   1024   1024      0    0.0  0.000      0      0  0.000  0.000  0.000  0.000  0.000  0.000  0.000   2.87   0.00   0.00      0      0    145.5   0.92   0.00   0.91    1.49    3.13    2.98    1.66    0.32    0.00      0      0      0       0      58 13.15
 2013 220    65    62   13.0      3   1.25    864    229      0    810   1094   1094      0    0.0  0.000      0      0  0.000  0.000  0.000  0.000  0.000  0.000  0.000   2.84   0.00   0.00      0      0    144.1   0.96   0.00   0.91    1.48    3.45    3.29    1.82    0.36    0.00      0      0      0       0      62 14.45
 2013 221    66    63   14.0      3   1.33    938    280      0    813   1218   1218      0    0.0  0.000      0      0  0.000  0.000  0.000  0.000  0.000  0.000  0.000   2.82   0.00   0.00      0      0    141.9   1.02   0.00   0.91    1.50    3.46    3.30    1.83    0.36    0.00      0      0      0       0      66 14.10
 2013 222    67    64   14.0      3   1.39    991    336      0    815   1327   1327      0    0.0  0.000      0      0  0.000  0.000  0.000  0.000  0.000  0.000  0.000   2.80   0.00   0.00      0      0    140.3   1.07   0.00   0.91    1.52    3.47    3.31    1.83    0.36    0.00      0      0      0       0      70 13.65
 2013 223    68    65   14.0      3   1.45   1048    410      0    818   1458   1458      0    0.0  0.000      0      0  0.000  0.000  0.000  0.000  0.000  0.000  0.000   2.77   0.00   0.00      0      0    138.8   1.12   0.00   0.91    1.55    3.48    3.32    1.84    0.36    0.00      0      0      0       0      74 14.30
 2013 224    69    66   14.0      3   1.51   1096    484      0    821   1581   1581      0    0.0  0.000      0      0  0.000  0.000  0.000  0.000  0.000  0.000  0.000   2.75   0.00   0.00      0      0    137.6   1.16   0.00   0.91    1.58    3.50    3.33    1.84    0.36    0.00      0      0      0       0      78 14.75
 2013 225    70    67   14.0      3   1.56   1143    564      0    828   1706   1706      0    0.0  0.000      0      0  0.000  0.000  0.000  0.000  0.000  0.000  0.000   2.73   0.00   0.00      0      0    136.5   1.20   0.00   0.91    1.63    3.54    3.35    1.85    0.36    0.00      0      0      0       0      82 14.55
 2013 226    71    68   15.0      3   1.60   1183    639      0    836   1822   1822      0    0.0  0.000      0      0  0.000  0.000  0.000  0.000  0.000  0.000  0.000   2.70   0.00   0.00      0      0    135.6   1.23   0.00   0.91    1.68    3.58    3.38    1.86    0.36    0.00      0      0      0       0      86 13.75
 2013 227    72    69   15.0      3   1.64   1221    713      0    840   1934   1934      0    0.0  0.000      0      0  0.000  0.000  0.000  0.000  0.000  0.000  0.000   2.68   0.00   0.00      0      0    134.7   1.27   0.00   0.91    1.72    3.60    3.40    1.87    0.36    0.00      0      0      0       0      90 13.70
 2013 228    73    70   15.0      3   1.68   1257    791      0    875   2048   2048      0    0.0  0.000      0      0  0.000  0.000  0.000  0.000  0.000  0.000  0.000   2.66   0.00   0.00      0      0    134.0   1.30   0.00   0.91    1.93    3.78    3.53    1.92    0.37    0.00      0      0      0       0      95 14.30
 2013 229    74    71   15.0      3   1.71   1286    856      0    935   2141   2141      0    0.0  0.000      0      0  0.000  0.182  0.000  0.000  0.000  0.000  0.000   2.64   0.00   0.00      0      0    133.4   1.32   0.00   0.91    2.09    4.00    3.79    2.03    0.38    0.00      0      0      0       0      99 14.50
 2013 230    75    72   15.0      3   1.74   1312    918      0    967   2229   2229      0    0.0  0.000      0      0  0.000  0.136  0.000  0.000  0.000  0.000  0.000   2.61   0.00   0.00      0      0    132.8   1.34   0.00   0.91    2.08    4.00    3.95    2.10    0.39    0.00      0      0      0       0     104 13.15
 2013 231    76    73   16.0      3   1.74   1327    956      0   1020   2284   2284      0    0.0  0.000      0      0  0.214  0.477  0.000  0.000  0.000  0.000  0.000   2.61   0.00   0.00      0      0    131.1   1.34   0.00   0.91    2.46    4.00    4.00    2.19    0.40    0.00      0      0      0       0     108 13.55
 2013 232    77    74   16.0      3   1.77   1357   1029      0   1035   2386   2388      0    0.0  0.000      2      0  0.000  0.000  0.000  0.000  0.000  0.000  0.000   2.57   0.00   0.00      0      2    130.6   1.36   0.00   0.91    2.59    4.00    4.00    2.22    0.40    0.00      0      0      0       0     114 13.75
 2013 233    78    75   16.0      3   1.75   1367   1055      0   1093   2422   2427      0    0.0  0.000      5      0  0.400  0.601  0.000  0.000  0.000  0.000  0.000   2.58   0.00   0.00      0      5    127.8   1.36   0.00   0.91    3.07    4.00    4.00    2.34    0.41    0.00      0      0      0       0     119 13.40
 2013 234    79    76   16.0      3   1.77   1392   1119      0   1140   2510   2520      0    0.0  0.000      9      0  0.000  0.000  0.000  0.000  0.000  0.000  0.000   2.54   0.00   0.00      0      9    127.4   1.36   0.00   0.91    3.42    4.00    4.00    2.41    0.42    0.00      0      0      0       0     124 12.45
 2013 235    80    77   16.0      3   1.80   1417   1184      0   1180   2601   2616      0    0.0  0.000     15      0  0.000  0.000  0.000  0.000  0.000  0.000  0.000   2.52   0.00   0.01      0     15    127.0   1.38   0.00   0.91    3.71    4.00    4.00    2.48    0.42    0.00      0      0      0       0     130 13.05
 2013 236    81    78   17.0      3   1.82   1440   1242      0   1248   2682   2706      0    0.0  0.000     24      0  0.000  0.000  0.000  0.000  0.000  0.000  0.000   2.50   0.00   0.01      0     24    126.7   1.40   0.00   0.91    4.00    4.00    4.00    2.59    0.43    0.00      0      0      0       0     136 12.25
 2013 237    82    79   17.0      3   1.85   1461   1294      0   1314   2755   2789      0    0.0  0.000     34      0  0.000  0.000  0.000  0.000  0.000  0.000  0.000   2.49   0.00   0.01      0     34    126.3   1.42   0.00   0.91    4.00    4.00    4.00    2.68    0.43    0.00      0      0      0       0     142 11.50
 2013 238    83    80   17.0      3   1.87   1480   1345      0   1354   2825   2869      0    0.0  0.000     44      0  0.000  0.000  0.000  0.000  0.000  0.000  0.000   2.47   0.00   0.02      0     44    126.1   1.44   0.00   0.91    4.00    4.00    4.00    2.73    0.43    0.00      0      0      0       0     149 11.10
 2013 239    84    81   17.0      3   1.89   1501   1398      0   1382   2899   2955      0    0.0  0.000     55      0  0.000  0.000  0.000  0.000  0.000  0.000  0.000   2.45   0.00   0.02      0     55    125.8   1.45   0.00   0.91    4.00    4.00    4.00    2.76    0.43    0.00      0      0      0       0     155 11.85
 2013 240    85    82   17.0      3   1.91   1521   1449      0   1402   2969   3036      0    0.0  0.000     67      0  0.000  0.000  0.000  0.000  0.000  0.000  0.000   2.44   0.00   0.02      0     67    125.5   1.47   0.00   0.91    4.00    4.00    4.00    2.78    0.43    0.00      0      0      0       0     162 11.40
 2013 241    86    83   17.0      3   1.93   1541   1488      0   1471   3029   3122      0    0.0  0.000     92      0  0.000  0.000  0.000  0.000  0.000  0.000  0.000   2.43   0.00   0.03      0     92    125.2   1.48   0.00   0.91    4.00    4.00    4.00    2.87    0.43    0.00      0      0      0       0     169 11.95
 2013 242    87    84   17.0      3   1.95   1562   1533      0   1498   3095   3207      0    0.0  0.000    113      0  0.000  0.000  0.000  0.000  0.000  0.000  0.000   2.41   0.00   0.04      0    113    124.9   1.50   0.00   0.91    4.00    4.00    4.00    2.90    0.43    0.00      0      0      0       0     177 11.95
 2013 243    88    85   17.0      3   1.97   1583   1570      0   1542   3153   3297      0    0.0  0.000    144      0  0.000  0.000  0.000  0.000  0.000  0.000  0.000   2.40   0.00   0.04      0    144    124.6   1.52   0.00   0.91    4.00    4.00    4.00    2.95    0.43    0.00      0      0      0       0     184 12.50
 2013 244    89    86   17.0      3   1.99   1604   1581      0   1629   3185   3382      0    0.0  0.000    197      0  0.000  0.000  0.000  0.000  0.000  0.000  0.000   2.40   0.00   0.06      0    197    124.3   1.53   0.00   0.91    4.00    4.00    4.00    3.05    0.43    0.00      0      0      0       0     192 11.80
 2013 245    90    87   17.0      3   2.01   1625   1599      0   1680   3224   3468      0    0.0  0.000    244      0  0.000  0.000  0.000  0.000  0.000  0.000  0.000   2.38   0.00   0.07      0    244    124.0   1.55   0.00   0.91    4.00    4.00    4.00    3.11    0.43    0.00      0      0      0       0     200 12.05
 2013 246    91    88   17.0      3   2.04   1648   1603      0   1747   3251   3565      0    0.0  0.000    314      0  0.000  0.000  0.000  0.000  0.000  0.000  0.000   2.37   0.00   0.09      0    314    123.7   1.57   0.00   0.91    4.00    4.00    4.00    3.21    0.44    0.00      0      0      0       0     208 13.40
 2013 247    92    89   17.0      3   2.06   1669   1636      0   1827   3305   3652      0    0.0  0.000    347      0  0.000  0.000  0.000  0.000  0.000  0.000  0.000   2.33   0.00   0.09      0    347    123.4   1.58   0.00   0.91    4.00    4.00    4.00    3.36    0.44    0.00      0      0      0       0     217 12.20
 2013 248    93    90   17.0      3   2.08   1692   1658      0   1837   3350   3746      0    0.0  0.000    396      0  0.000  0.000  0.000  0.000  0.000  0.000  0.000   2.32   0.00   0.11      0    396    123.2   1.60   0.00   0.91    4.00    4.00    4.00    3.38    0.44    0.00      0      0      0       0     226 13.05
 2013 249    94    91   17.0      3   2.10   1713   1665      0   1853   3377   3831      0    0.0  0.000    454      0  0.000  0.000  0.000  0.000  0.000  0.000  0.000   2.31   0.00   0.12      0    454    122.9   1.60   0.00   0.91    4.00    4.00    4.00    3.43    0.44    0.00      0      0      0       0     235 11.80
 2013 250    95    92   17.0      3   2.13   1733   1697      0   1939   3430   3915      0    0.0  0.000    485      0  0.000  0.000  0.000  0.000  0.000  0.000  0.000   2.28   0.00   0.12      0    485    122.6   1.60   0.00   0.91    4.00    4.00    4.00    3.64    0.44    0.00      0      0      0       0     245 11.65
 2013 251    96    93   17.0      3   2.15   1755   1730      0   2028   3485   4004      0    0.0  0.000    519      0  0.000  0.000  0.000  0.000  0.000  0.000  0.000   2.26   0.00   0.13      0    519    122.4   1.60   0.00   0.91    4.00    4.00    4.00    3.87    0.44    0.00      0      0      0       0     254 12.40
 2013 252    97    94   17.0      4   2.10   1736   1809      0   2027   3545   4186      0    0.0  0.000    641      0  0.000  0.000  0.000  0.000  0.000  0.000  0.000   2.31   0.00   0.15      0    641    120.9   1.60   0.00   0.91    4.00    4.00    4.00    3.87    0.44    0.00      0      0      0       0     264 11.55
 2013 253    98    95   17.0      4   2.09   1717   1893      0   2027   3610   4410      0    0.0  0.000    800      0  0.000  0.000  0.000  0.000  0.000  0.000  0.000   2.29   0.00   0.18      0    800    121.9   1.60   0.00   0.91    4.00    4.00    4.00    3.88    0.44    0.00      0      0      0       0     275 11.95
 2013 254    99    96   17.0      4   2.09   1696   1975      0   2029   3671   4655      0    0.0  0.000    984      0  0.000  0.000  0.000  0.000  0.000  0.000  0.000   2.25   0.00   0.21      0    984    123.0   1.60   0.00   0.91    4.00    4.00    4.00    3.89    0.44    0.00      0      0      0       0     285 13.05
 2013 255   100    97   17.0      4   2.08   1674   2049      0   2031   3723   4908      0    0.0  0.000   1185      0  0.000  0.000  0.000  0.000  0.000  0.000  0.000   2.22   0.00   0.24      0   1185    124.2   1.60   0.00   0.91    4.00    4.00    4.00    3.91    0.43    0.00      0      0      0       0     285 13.70
 2013 256   101    98   17.0      4   2.07   1651   2096      0   2029   3747   5077      0    0.0  0.000   1330      0  0.000  0.000  0.000  0.000  0.000  0.000  0.000   2.21   0.00   0.26      0   1330    125.5   1.60   0.00   0.91    4.00    4.00    4.00    3.91    0.43    0.00      0      0      0       0     285 12.55
 2013 257   102    99   17.0      4   2.07   1627   2152      0   2030   3779   5310      0    0.0  0.000   1532      0  0.000  0.000  0.000  0.000  0.000  0.000  0.000   2.19   0.00   0.29      0   1532    127.0   1.60   0.00   0.91    4.00    4.00    4.00    3.93    0.43    0.00      0      0      0       0     285 11.70
 2013 258   103   100   17.0      4   2.06   1601   2199      0   2030   3800   5524      0    0.0  0.000   1724      0  0.000  0.000  0.000  0.000  0.000  0.000  0.000   2.18   0.00   0.31      0   1724    128.5   1.60   0.00   0.91    4.00    4.00    4.00    3.94    0.43    0.00      0      0      0       0     285 13.50
 2013 259   104   101   17.0      4   2.05   1574   2231      0   2028   3805   5671      0    0.0  0.000   1866      0  0.000  0.000  0.000  0.000  0.000  0.000  0.000   2.18   0.00   0.33      0   1866    130.3   1.60   0.00   0.91    4.00    4.00    4.00    3.94    0.43    0.00      0      0      0       0     285 12.25
 2013 260   105   102   17.0      4   2.04   1547   2269      0   2027   3815   5868      0    0.0  0.000   2053      0  0.000  0.000  0.000  0.000  0.000  0.000  0.000   2.17   0.00   0.35      0   2053    132.1   1.60   0.00   0.91    4.00    4.00    4.00    3.95    0.43    0.00      0      0      0       0     285 13.20
 2013 261   106   103   17.0      4   2.04   1518   2309      0   2028   3827   6100      0    0.0  0.000   2273      0  0.000  0.000  0.000  0.000  0.000  0.000  0.000   2.16   0.00   0.37      0   2273    134.2   1.60   0.00   0.91    4.00    4.00    4.00    3.96    0.43    0.00      0      0      0       0     285 13.75
 2013 262   107   104   17.0      4   2.03   1487   2347      0   2029   3834   6321      0    0.0  0.000   2487      0  0.000  0.000  0.000  0.000  0.000  0.000  0.000   2.16   0.00   0.39      0   2487    136.4   1.60   0.00   0.91    4.00    4.00    4.00    3.97    0.43    0.00      0      0      0       0     285 12.95
 2013 263   108   105   17.0      4   2.02   1456   2382      0   2030   3838   6538      0    0.0  0.000   2700      0  0.000  0.000  0.000  0.000  0.000  0.000  0.000   2.16   0.00   0.41      0   2700    138.9   1.60   0.00   0.91    4.00    4.00    4.00    3.98    0.43    0.00      0      0      0       0     285 13.30
 2013 264   109   106   17.0      4   2.01   1423   2418      0   2031   3841   6769      0    0.0  0.000   2928      0  0.000  0.000  0.000  0.000  0.000  0.000  0.000   2.15   0.00   0.43      0   2928    141.6   1.60   0.00   0.91    4.00    4.00    4.00    4.00    0.43    0.00      0      0      0       0     285 12.05
 2013 265   110   107   17.0      4   2.01   1389   2449      0   2031   3838   6968      0    0.0  0.000   3130      0  0.000  0.000  0.000  0.000  0.000  0.000  0.000   2.16   0.00   0.45      0   3130    144.5   1.60   0.00   0.91    4.00    4.00    4.00    4.00    0.43    0.00      0      0      0       0     285 13.75
 2013 266   111   108   17.0      5   1.95   1389   2449    171   2047   3838   7139   1316   13.0  0.024   3301      4  0.000  0.000  0.000  0.000  0.000  0.000  0.000   2.08   5.18   0.46      0   3301    140.3   1.60   0.00   0.91    4.00    4.00    4.00    4.00    0.43    0.00      0      0      0       0     285 13.30
 2013 267   112   109   17.0      5   1.94   1389   2449    342   2061   3838   7310   1316   26.0  0.047   3472      4  0.000  0.000  0.000  0.000  0.000  0.000  0.000   2.00   9.85   0.47      0   3472    139.7   1.60   0.00   0.91    4.00    4.00    4.00    4.00    0.44    0.00      0      0      0       0     285 12.35
 2013 268   113   110   17.0      5   1.93   1389   2449    513   2080   3838   7481   1316   39.0  0.069   3643      4  0.000  0.000  0.000  0.000  0.000  0.000  0.000   1.93  14.09   0.49      0   3643    138.9   1.60   0.00   0.91    4.00    4.00    4.00    4.00    0.44    0.00      0      0      0       0     285 13.80
 2013 269   114   111   17.0      5   1.92   1389   2449    684   2093   3838   7652   1316   52.0  0.089   3814      4  0.000  0.000  0.000  0.000  0.000  0.000  0.000   1.85  17.94   0.50      0   3814    137.9   1.60   0.00   0.91    4.00    4.00    4.00    4.00    0.45    0.00      0      0      0       0     285 13.95
 2013 270   115   112   17.0      5   1.90   1389   2449    855   2108   3838   7824   1316   65.0  0.109   3985      4  0.000  0.000  0.000  0.000  0.000  0.000  0.000   1.78  21.46   0.51      0   3985    136.9   1.60   0.00   0.91    4.00    4.00    4.00    4.00    0.45    0.00      0      0      0       0     285 13.15
 2013 271   116   113   17.0      5   1.89   1389   2449   1026   2126   3838   7995   1316   78.0  0.128   4156      4  0.000  0.000  0.000  0.000  0.000  0.000  0.000   1.70  24.69   0.52      0   4156    135.8   1.60   0.00   0.91    4.00    4.00    4.00    4.00    0.46    0.00      0      0      0       0     285 13.10
 2013 272   117   114   17.0      5   1.87   1389   2449   1197   2145   3838   8166   1316   91.0  0.147   4327      4  0.000  0.000  0.000  0.000  0.000  0.000  0.000   1.63  27.67   0.53      0   4327    134.5   1.60   0.00   0.91    3.98    4.00    4.00    4.00    0.46    0.00      0      0      0       0     285 13.85
 2013 273   118   115   17.0      5   1.85   1389   2449   1368   2150   3838   8337   1316  104.0  0.164   4498      4  0.000  0.000  0.000  0.000  0.000  0.000  0.000   1.54  30.42   0.54      0   4498    133.0   1.60   0.00   0.91    4.00    4.00    4.00    4.00    0.47    0.00      0      0      0       0     295 14.15
 2013 274   119   116   17.0      5   1.83   1389   2433   1540   2139   3822   8491   1316  117.0  0.181   4669      4  0.000  0.000  0.000  0.000  0.000  0.000  0.000   1.50  32.97   0.55      0   4669    131.7   1.60   0.00   0.91    4.00    4.00    4.00    4.00    0.47    0.00      0      0      0       0     306 11.30
 2013 275   120   117   17.0      5   1.81   1389   2449   1711   2146   3838   8679   1316  130.0  0.197   4840      4  0.000  0.000  0.000  0.000  0.000  0.000  0.000   1.48  35.34   0.56      0   4840    130.1   1.60   0.00   0.91    4.00    4.00    4.00    4.00    0.47    0.00      0      0      0       0     317 12.05
 2013 276   121   118   17.0      5   1.79   1389   2449   1882   2156   3838   8850   1316  143.0  0.213   5011      4  0.000  0.000  0.000  0.000  0.000  0.000  0.000   1.46  37.55   0.57      0   5011    128.6   1.60   0.00   0.91    4.00    4.00    4.00    4.00    0.47    0.00      0      0      0       0     328 11.55
 2013 277   122   119   17.0      5   1.76   1389   2449   2053   2161   3838   9021   1316  156.0  0.228   5182      4  0.000  0.000  0.000  0.000  0.000  0.000  0.000   1.43  39.61   0.57      0   5182    126.7   1.60   0.00   0.91    4.00    4.00    4.00    4.00    0.47    0.00      0      0      0       0     338 12.50
 2013 278   123   120   17.0      5   1.73   1389   2449   2224   2169   3838   9192   1316  169.0  0.242   5354      4  0.000  0.000  0.000  0.000  0.000  0.000  0.000   1.41  41.54   0.58      0   5354    124.9   1.60   0.00   0.91    4.00    4.00    4.00    4.00    0.47    0.00      0      0      0       0     349 11.65
 2013 279   124   121   17.0      5   1.71   1389   2441   2395   2159   3830   9354   1316  182.0  0.256   5525      4  0.000  0.000  0.000  0.000  0.000  0.000  0.000   1.37  43.35   0.59      0   5525    123.0   1.60   0.00   0.91    4.00    4.00    4.00    4.00    0.47    0.00      0      0      0       0     360 11.10
 2013 280   125   122   17.0      5   1.68   1389   2449   2566   2157   3838   9534   1316  195.0  0.269   5696      4  0.000  0.000  0.000  0.000  0.000  0.000  0.000   1.35  45.05   0.60      0   5696    120.8   1.60   0.00   0.91    4.00    4.00    4.00    4.00    0.47    0.00      0      0      0       0     371 12.00
 2013 281   126   123   17.0      5   1.65   1389   2449   2737   2162   3838   9705   1316  208.0  0.282   5867      4  0.000  0.000  0.000  0.000  0.000  0.000  0.000   1.33  46.65   0.60      0   5867    118.4   1.60   0.00   0.91    4.00    4.00    4.00    4.00    0.47    0.00      0      0      0       0     382 12.10
 2013 282   127   124   17.0      5   1.61   1389   2449   2908   2154   3838   9876   1316  221.0  0.294   6038      4  0.000  0.000  0.000  0.000  0.000  0.000  0.000   1.30  48.16   0.61      0   6038    116.0   1.60   0.00   0.91    3.99    3.99    3.99    3.99    0.47    0.00      0      0      0       0     392 11.85
 2013 283   128   125   17.0      5   1.57   1389   2449   3079   2156   3838  10047   1316  234.0  0.306   6209      4  0.000  0.000  0.000  0.000  0.000  0.000  0.000   1.28  49.59   0.62      0   6209    113.3   1.60   0.00   0.91    3.99    4.00    4.00    4.00    0.47    0.00      0      0      0       0     403 12.35
 2013 284   129   126   17.0      5   1.54   1389   2449   3250   2166   3838  10218   1316  247.0  0.318   6380      4  0.000  0.000  0.000  0.000  0.000  0.000  0.000   1.27  50.94   0.62      0   6380    110.6   1.60   0.00   0.91    4.00    4.00    4.00    4.00    0.47    0.00      0      0      0       0     414 11.50
 2013 285   130   127   17.0      5   1.50   1389   2449   3421   2174   3838  10389   1316  260.0  0.329   6551      4  0.000  0.000  0.000  0.000  0.000  0.000  0.000   1.24  52.22   0.63      0   6551    107.8   1.60   0.00   0.91    4.00    4.00    4.00    4.00    0.47    0.00      0      0      0       0     425 11.30
 2013 286   131   128   17.0      5   1.45   1389   2449   3592   2181   3838  10560   1316  273.0  0.340   6722      4  0.000  0.000  0.000  0.000  0.000  0.000  0.000   1.22  53.44   0.64      0   6722    104.5   1.60   0.00   0.91    4.00    4.00    4.00    4.00    0.47    0.00      0      0      0       0     436 12.45
 2013 287   132   129   17.0      5   1.40   1389   2449   3763   2189   3838  10731   1316  286.0  0.351   6893      4  0.000  0.000  0.000  0.000  0.000  0.000  0.000   1.20  54.60   0.64      0   6893    100.8   1.60   0.00   0.91    4.00    4.00    4.00    4.00    0.47    0.00      0      0      0       0     447 13.05
 2013 288   133   130   17.0      5   1.34   1389   2449   3934   2194   3838  10903   1316  299.0  0.361   7064      4  0.000  0.000  0.000  0.000  0.000  0.000  0.000   1.17  55.69   0.65      0   7064     96.8   1.60   0.00   0.91    4.00    4.00    4.00    4.00    0.47    0.00      0      0      0       0     458 13.75
 2013 289   134   131   17.0      5   1.28   1389   2449   4105   2197   3838  11074   1316  312.0  0.371   7235      4  0.000  0.000  0.000  0.000  0.000  0.000  0.000   1.14  56.74   0.65      0   7235     92.3   1.60   0.00   0.91    4.00    4.00    4.00    4.00    0.46    0.00      0      0      0       0     469 14.05
 2013 290   135   132   17.0      5   1.22   1389   2449   4276   2199   3838  11245   1316  325.0  0.380   7406      4  0.000  0.000  0.000  0.000  0.000  0.000  0.000   1.12  57.74   0.66      0   7406     88.0   1.60   0.00   0.91    4.00    4.00    4.00    4.00    0.46    0.00      0      0      0       0     480 13.05
 2013 291   136   133   17.0      5   1.16   1389   2449   4448   2201   3838  11416   1316  338.0  0.390   7577      4  0.000  0.000  0.000  0.000  0.000  0.000  0.000   1.10  58.70   0.66      0   7577     83.6   1.60   0.00   0.91    3.98    4.00    4.00    4.00    0.46    0.00      0      0      0       0     491 12.55
 2013 292   137   134   17.0      5   1.10   1389   2449   4619   2200   3838  11587   1316  351.0  0.399   7748      4  0.000  0.000  0.000  0.000  0.000  0.000  0.000   1.08  59.61   0.67      0   7748     79.3   1.60   0.00   0.91    3.96    4.00    4.00    4.00    0.46    0.00      0      0      0       0     502 11.65
 2013 293   138   135   17.0      5   1.04   1389   2449   4790   2197   3838  11758   1316  364.0  0.407   7919      4  0.000  0.000  0.000  0.000  0.000  0.000  0.000   1.06  60.48   0.67      0   7919     75.0   1.60   0.00   0.91    3.94    4.00    4.00    4.00    0.46    0.00      0      0      0       0     513 11.10
 2013 294   139   136   17.0      5   0.97   1389   2449   4961   2194   3838  11929   1316  377.0  0.416   8090      4  0.000  0.000  0.000  0.000  0.000  0.000  0.000   1.04  61.32   0.68      0   8090     69.9   1.60   0.00   0.91    3.92    4.00    4.00    4.00    0.45    0.00      0      0      0       0     524 12.60
 2013 295   140   137   17.0      5   0.90   1389   2449   5132   2188   3838  12100   1316  390.0  0.424   8262      4  0.000  0.011  0.000  0.000  0.000  0.000  0.000   1.02  62.12   0.68      0   8262     64.5   1.60   0.00   0.91    3.90    4.00    4.00    3.99    0.45    0.00      0      0      0       0     535 12.60
 2013 296   141   138   17.0      5   0.90   1389   2449   5132   2188   3838  12100   1316  390.0  0.424   8262      4  0.000  0.115  0.000  0.000  0.000  0.000  0.000   1.02  62.12   0.68      0   8262     64.5   1.60   0.00   0.91    3.88    4.00    4.00    3.99    0.45    0.00      0      0      0       0     535 11.90
 2013 297   142   139   17.0      5   0.90   1389   2449   5132   2188   3838  12100   1316  390.0  0.424   8262      4  0.000  0.304  0.000  0.000  0.000  0.000  0.000   1.02  62.12   0.68      0   8262     64.5   1.60   0.00   0.91    3.88    4.00    4.00    3.98    0.45    0.00      0      0      0       0     535 12.40
 2013 298   143   140   17.0      5   0.90   1389   2449   5132   2188   3838  12100   1316  390.0  0.424   8262      4  0.000  0.304  0.000  0.000  0.000  0.000  0.000   1.02  62.12   0.68      0   8262     64.5   1.60   0.00   0.91    3.88    3.99    4.00    3.98    0.44    0.00      0      0      0       0     535  0.00
 2013 299   144   141   17.0      5   0.90   1389   2449   5132   2188   3838  12100   1316  390.0  0.424   8262      4  0.000  0.304  0.000  0.000  0.000  0.000  0.000   1.02  62.12   0.68      0   8262     64.5   1.60   0.00   0.91    3.89    3.98    4.00    3.97    0.44    0.00      0      0      0       0     535 12.45
 2013 300   145   142   17.0      5   0.90   1389   2449   5132   2188   3838  12100   1316  390.0  0.424   8262      4  0.000  0.304  0.000  0.000  0.000  0.000  0.000   1.02  62.12   0.68      0   8262     64.5   1.60   0.00   0.91    3.87    3.98    4.00    3.97    0.44    0.00      0      0      0       0     535 12.80
 2013 301   146   143   17.0      5   0.90   1389   2449   5132   2188   3838  12100   1316  390.0  0.424   8262      4  0.000  0.304  0.000  0.000  0.000  0.000  0.000   1.02  62.12   0.68      0   8262     64.5   1.60   0.00   0.91    3.85    3.97    4.00    3.97    0.44    0.00      0      0      0       0     535 13.35
 2013 302   147   144   17.0      5   0.90   1389   2449   5132   2188   3838  12100   1316  390.0  0.424   8262      4  0.000  0.304  0.000  0.000  0.000  0.000  0.000   1.02  62.12   0.68      0   8262     64.5   1.60   0.00   0.91    3.83    3.95    4.00    3.97    0.44    0.00      0      0      0       0     535 11.50
 2013 303   148   145   17.0      5   0.90   1389   2449   5132   2188   3838  12100   1316  390.0  0.424   8262      4  0.000  0.304  0.000  0.000  0.000  0.000  0.000   1.02  62.12   0.68      0   8262     64.5   1.60   0.00   0.91    3.81    3.93    4.00    3.97    0.44    0.00      0      0      0       0     535 12.45
 2013 304   149   146   17.0      5   0.90   1389   2449   5132   2188   3838  12100   1316  390.0  0.424   8262      4  0.000  0.304  0.000  0.000  0.000  0.000  0.000   1.02  62.12   0.68      0   8262     64.5   1.60   0.00   0.91    3.79    3.91    4.00    3.97    0.43    0.00      0      0      0       0     535 13.80
 2013 305   150   147   17.0      5   0.90   1389   2449   5132   2188   3838  12100   1316  390.0  0.424   8262      4  0.000  0.304  0.000  0.000  0.000  0.000  0.000   1.02  62.12   0.68      0   8262     64.5   1.60   0.00   0.91    3.77    3.89    4.00    3.98    0.43    0.00      0      0      0       0     535 16.30
 2013 306   151   148   17.0      5   0.90   1389   2449   5132   2188   3838  12100   1316  390.0  0.424   8262      4  0.000  0.304  0.000  0.000  0.000  0.000  0.000   1.02  62.12   0.68      0   8262     64.5   1.60   0.00   0.91    3.76    3.87    3.99    3.98    0.43    0.00      0      0      0       0     535 12.45
 2013 307   152   149   17.0      5   0.90   1389   2449   5132   2188   3838  12100   1316  390.0  0.424   8262      4  0.000  0.304  0.000  0.000  0.000  0.000  0.000   1.02  62.12   0.68      0   8262     64.5   1.60   0.00   0.91    3.74    3.85    3.99    3.98    0.43    0.00      0      0      0       0     535 13.70
 2013 308   153   150   17.0      5   0.90   1389   2449   5132   2188   3838  12100   1316  390.0  0.424   8262      4  0.000  0.304  0.000  0.000  0.000  0.000  0.000   1.02  62.12   0.68      0   8262     64.5   1.60   0.00   0.91    3.72    3.83    3.97    3.99    0.44    0.00      0      0      0       0     535 13.80
 2013 309   154   151   17.0      5   0.90   1389   2449   5132   2188   3838  12100   1316  390.0  0.424   8262      4  0.000  0.304  0.000  0.000  0.000  0.000  0.000   1.02  62.12   0.68      0   8262     64.5   1.60   0.00   0.91    3.70    3.81    3.95    3.99    0.45    0.00      0      0      0       0     535 11.45
 2013 310   155   152   17.0      5   0.90   1389   2449   5132   2188   3838  12100   1316  390.0  0.424   8262      4  0.000  0.304  0.000  0.000  0.000  0.000  0.000   1.02  62.12   0.68      0   8262     64.5   1.60   0.00   0.91    3.68    3.79    3.93    3.97    0.48    0.00      0      0      0       0     535 12.45
 2013 311   156   153   17.0      5   0.90   1389   2449   5132   2188   3838  12100   1316  390.0  0.424   8262      4  0.000  0.304  0.000  0.000  0.000  0.000  0.000   1.02  62.12   0.68      0   8262     64.5   1.60   0.00   0.91    3.66    3.77    3.91    3.95    0.51    0.00      0      0      0       0     535 11.05
 2013 312   157   154   17.0      5   0.90   1389   2449   5132   2188   3838  12100   1316  390.0  0.424   8262      4  0.000  0.304  0.000  0.000  0.000  0.000  0.000   1.02  62.12   0.68      0   8262     64.5   1.60   0.00   0.91    3.64    3.76    3.89    3.93    0.55    0.00      0      0      0       0     535 13.20
 2013 313   158   155   17.0      5   0.90   1389   2449   5132   2188   3838  12100   1316  390.0  0.424   8262      4  0.000  0.304  0.000  0.000  0.000  0.000  0.000   1.02  62.12   0.68      0   8262     64.5   1.60   0.00   0.91    3.62    3.74    3.87    3.91    0.58    0.00      0      0      0       0     535 11.45
 2013 314   159   156   17.0      5   0.90   1389   2449   5132   2188   3838  12100   1316  390.0  0.424   8262      4  0.000  0.304  0.000  0.000  0.000  0.000  0.000   1.02  62.12   0.68      0   8262     64.5   1.60   0.00   0.91    3.60    3.72    3.85    3.89    0.61    0.00      0      0      0       0     535 12.00
 2013 315   160   157   17.0      5   0.90   1389   2449   5132   2188   3838  12100   1316  390.0  0.424   8262      4  0.000  0.304  0.000  0.000  0.000  0.000  0.000   1.02  62.12   0.68      0   8262     64.5   1.60   0.00   0.91    3.58    3.70    3.83    3.87    0.64    0.00      0      0      0       0     535 11.90
 2013 316   161   158   17.0      5   0.90   1389   2449   5132   2188   3838  12100   1316  390.0  0.424   8262      4  0.000  0.304  0.000  0.000  0.000  0.000  0.000   1.02  62.12   0.68      0   8262     64.5   1.60   0.00   0.91    3.57    3.68    3.81    3.85    0.67    0.00      0      0      0       0     535 11.00
 2013 317   162   159   17.0      5   0.90   1389   2449   5132   2188   3838  12100   1316  390.0  0.424   8262      4  0.000  0.304  0.000  0.000  0.000  0.000  0.000   1.02  62.12   0.68      0   8262     64.5   1.60   0.00   0.91    3.55    3.66    3.79    3.83    0.70    0.00      0      0      0       0     535 12.45
 2013 318   163   160   17.0      5   0.90   1389   2449   5132   2188   3838  12100   1316  390.0  0.424   8262      4  0.000  0.304  0.000  0.000  0.000  0.000  0.000   1.02  62.12   0.68      0   8262     64.5   1.60   0.00   0.91    3.72    3.64    3.77    3.81    0.70    0.00      0      0      0       0     535 13.35
 2013 319   164   161   17.0      5   0.90   1389   2449   5132   2188   3838  12100   1316  390.0  0.424   8262      4  0.000  0.304  0.000  0.000  0.000  0.000  0.000   1.02  62.12   0.68      0   8262     64.5   1.60   0.00   0.91    3.77    3.69    3.75    3.79    0.69    0.00      0      0      0       0     535 13.40
 2013 320   165   162   17.0      5   0.90   1389   2449   5132   2188   3838  12100   1316  390.0  0.424   8262      4  0.000  0.304  0.000  0.000  0.000  0.000  0.000   1.02  62.12   0.68      0   8262     64.5   1.60   0.00   0.91    3.80    3.74    3.73    3.77    0.69    0.00      0      0      0       0     535 13.05
 2013 321   166   163   17.0      5   0.90   1389   2449   5132   2188   3838  12100   1316  390.0  0.424   8262      4  0.000  0.304  0.000  0.000  0.000  0.000  0.000   1.02  62.12   0.68      0   8262     64.5   1.60   0.00   0.91    3.84    3.80    3.71    3.75    0.69    0.00      0      0      0       0     535 12.25
 2013 322   167   164   17.0      5   0.90   1389   2449   5132   2188   3838  12100   1316  390.0  0.424   8262      4  0.000  0.304  0.000  0.000  0.000  0.000  0.000   1.02  62.12   0.68      0   8262     64.5   1.60   0.00   0.91    3.88    3.85    3.69    3.73    0.69    0.00      0      0      0       0     535 12.05
 2013 323   168   165   17.0      5   0.90   1389   2449   5132   2188   3838  12100   1316  390.0  0.424   8262      4  0.000  0.304  0.000  0.000  0.000  0.000  0.000   1.02  62.12   0.68      0   8262     64.5   1.60   0.00   0.91    3.91    3.90    3.67    3.71    0.68    0.00      0      0      0       0     535 13.35
 2013 324   169   166   17.0      5   0.90   1389   2449   5132   2188   3838  12100   1316  390.0  0.424   8262      4  0.000  0.304  0.000  0.000  0.000  0.000  0.000   1.02  62.12   0.68      0   8262     64.5   1.60   0.00   0.91    3.95    3.95    3.65    3.69    0.68    0.00      0      0      0       0     535 13.10
 2013 325   170   167   17.0      5   0.90   1389   2449   5132   2188   3838  12100   1316  390.0  0.424   8262      4  0.000  0.304  0.000  0.000  0.000  0.000  0.000   1.02  62.12   0.68      0   8262     64.5   1.60   0.00   0.91    3.98    4.00    3.64    3.67    0.68    0.00      0      0      0       0     535 13.05
 2013 326   171   168   17.0      5   0.90   1389   2449   5132   2188   3838  12100   1316  390.0  0.424   8262      4  0.000  0.304  0.000  0.000  0.000  0.000  0.000   1.02  62.12   0.68      0   8262     64.5   1.60   0.00   0.91    3.96    4.00    3.62    3.65    0.68    0.00      0      0      0       0     535 11.60
 2013 327   172   169   17.0      5   0.90   1389   2449   5132   2188   3838  12100   1316  390.0  0.424   8262      4  0.000  0.304  0.000  0.000  0.000  0.000  0.000   1.02  62.12   0.68      0   8262     64.5   1.60   0.00   0.91    3.94    4.00    3.60    3.63    0.67    0.00      0      0      0       0     535 11.85
 2013 328   173   170   17.0      5   0.90   1389   2449   5132   2188   3838  12100   1316  390.0  0.424   8262      4  0.000  0.304  0.000  0.000  0.000  0.000  0.000   1.02  62.12   0.68      0   8262     64.5   1.60   0.00   0.91    3.92    4.00    3.58    3.61    0.67    0.00      0      0      0       0     535 13.20
 2013 329   174   171   17.0      5   0.90   1389   2449   5132   2188   3838  12100   1316  390.0  0.424   8262      4  0.000  0.304  0.000  0.000  0.000  0.000  0.000   1.02  62.12   0.68      0   8262     64.5   1.60   0.00   0.91    3.90    4.00    3.56    3.60    0.67    0.00      0      0      0       0     535 12.80
 2013 330   175   172   17.0      5   0.90   1389   2449   5132   2188   3838  12100   1316  390.0  0.424   8262      4  0.000  0.304  0.000  0.000  0.000  0.000  0.000   1.02  62.12   0.68      0   8262     64.5   1.60   0.00   0.91    3.88    4.00    3.54    3.58    0.67    0.00      0      0      0       0     535 12.70
 2013 331   176   173   17.0      5   0.90   1389   2449   5132   2188   3838  12100   1316  390.0  0.424   8262      4  0.000  0.304  0.000  0.000  0.000  0.000  0.000   1.02  62.12   0.68      0   8262     64.5   1.60   0.00   0.91    3.86    4.00    3.53    3.56    0.67    0.00      0      0      0       0     535 12.65
 2013 332   177   174   17.0      5   0.90   1389   2449   5132   2188   3838  12100   1316  390.0  0.424   8262      4  0.000  0.304  0.000  0.000  0.000  0.000  0.000   1.02  62.12   0.68      0   8262     64.5   1.60   0.00   0.91    3.84    4.00    3.51    3.54    0.68    0.00      0      0      0       0     535 12.50
 2013 333   178   175   17.0      5   0.90   1389   2449   5132   2188   3838  12100   1316  390.0  0.424   8262      4  0.000  0.304  0.000  0.000  0.000  0.000  0.000   1.02  62.12   0.68      0   8262     64.5   1.60   0.00   0.91    3.82    4.00    3.49    3.52    0.69    0.00      0      0      0       0     535 12.65
 2013 334   179   176   17.0      5   0.90   1389   2449   5132   2188   3838  12100   1316  390.0  0.424   8262      4  0.000  0.304  0.000  0.000  0.000  0.000  0.000   1.02  62.12   0.68      0   8262     64.5   1.60   0.00   0.91    3.80    3.98    3.47    3.51    0.71    0.00      0      0      0       0     535 12.35
 2013 335   180   177   17.0      5   0.90   1389   2449   5132   2188   3838  12100   1316  390.0  0.424   8262      4  0.000  0.304  0.000  0.000  0.000  0.000  0.000   1.02  62.12   0.68      0   8262     64.5   1.60   0.00   0.91    3.78    3.96    3.45    3.49    0.75    0.00      0      0      0       0     535 12.05
 2013 336   181   178   17.0      5   0.90   1389   2449   5132   2188   3838  12100   1316  390.0  0.424   8262      4  0.000  0.304  0.000  0.000  0.000  0.000  0.000   1.02  62.12   0.68      0   8262     64.5   1.60   0.00   0.91    3.77    3.94    3.44    3.47    0.77    0.00      0      0      0       0     535 12.65
 2013 337   182   179   17.0      5   0.90   1389   2449   5132   2188   3838  12100   1316  390.0  0.424   8262      4  0.000  0.304  0.000  0.000  0.000  0.000  0.000   1.02  62.12   0.68      0   8262     64.5   1.60   0.00   0.91    3.75    3.92    3.42    3.45    0.81    0.00      0      0      0       0     535 12.15
 2013 338   183   180   17.0      5   0.90   1389   2449   5132   2188   3838  12100   1316  390.0  0.424   8262      4  0.000  0.304  0.000  0.000  0.000  0.000  0.000   1.02  62.12   0.68      0   8262     64.5   1.60   0.00   0.91    3.73    3.90    3.40    3.43    0.83    0.00      0      0      0       0     535 13.30
 2013 339   184   181   17.0      5   0.90   1389   2449   5132   2188   3838  12100   1316  390.0  0.424   8262      4  0.000  0.304  0.000  0.000  0.000  0.000  0.000   1.02  62.12   0.68      0   8262     64.5   1.60   0.00   0.91    3.71    3.88    3.38    3.42    0.87    0.00      0      0      0       0     535 13.60
 2013 340   185   182   17.0      5   0.90   1389   2449   5132   2188   3838  12100   1316  390.0  0.424   8262      4  0.000  0.304  0.000  0.000  0.000  0.000  0.000   1.02  62.12   0.68      0   8262     64.5   1.60   0.00   0.91    3.69    3.86    3.37    3.40    0.89    0.00      0      0      0       0     535 13.50
 2013 341   186   183   17.0      5   0.90   1389   2449   5132   2188   3838  12100   1316  390.0  0.424   8262      4  0.000  0.304  0.000  0.000  0.000  0.000  0.000   1.02  62.12   0.68      0   8262     64.5   1.60   0.00   0.91    3.67    3.84    3.35    3.38    0.92    0.00      0      0      0       0     535 12.70
 2013 342   187   184   17.0      5   0.90   1389   2449   5132   2188   3838  12100   1316  390.0  0.424   8262      4  0.000  0.304  0.000  0.000  0.000  0.000  0.000   1.02  62.12   0.68      0   8262     64.5   1.60   0.00   0.91    3.65    3.82    3.33    3.36    0.95    0.00      0      0      0       0     535 11.75
 2013 343   188   185   17.0      5   0.90   1389   2449   5132   2188   3838  12100   1316  390.0  0.424   8262      4  0.000  0.304  0.000  0.000  0.000  0.000  0.000   1.02  62.12   0.68      0   8262     64.5   1.60   0.00   0.91    3.63    3.80    3.31    3.35    0.98    0.00      0      0      0       0     535 12.60
 2013 344   189   186   17.0      5   0.90   1389   2449   5132   2188   3838  12100   1316  390.0  0.424   8262      4  0.000  0.304  0.000  0.000  0.000  0.000  0.000   1.02  62.12   0.68      0   8262     64.5   1.60   0.00   0.91    3.61    3.78    3.30    3.33    1.01    0.00      0      0      0       0     535 12.35
 2013 345   190   187   17.0      5   0.90   1389   2449   5132   2188   3838  12100   1316  390.0  0.424   8262      4  0.000  0.304  0.000  0.000  0.000  0.000  0.000   1.02  62.12   0.68      0   8262     64.5   1.60   0.00   0.91    3.59    3.76    3.28    3.31    1.04    0.00      0      0      0       0     535 13.00
 2013 346   191   188   17.0      5   0.90   1389   2449   5132   2188   3838  12100   1316  390.0  0.424   8262      4  0.000  0.304  0.000  0.000  0.000  0.000  0.000   1.02  62.12   0.68      0   8262     64.5   1.60   0.00   0.91    3.58    3.74    3.26    3.30    1.07    0.00      0      0      0       0     535 14.10
 2013 347   192   189   17.0      5   0.90   1389   2449   5132   2188   3838  12100   1316  390.0  0.424   8262      4  0.000  0.304  0.000  0.000  0.000  0.000  0.000   1.02  62.12   0.68      0   8262     64.5   1.60   0.00   0.91    3.56    3.72    3.25    3.28    1.10    0.00      0      0      0       0     535 13.35
 2013 348   193   190   17.0      5   0.90   1389   2449   5132   2188   3838  12100   1316  390.0  0.424   8262      4  0.000  0.304  0.000  0.000  0.000  0.000  0.000   1.02  62.12   0.68      0   8262     64.5   1.60   0.00   0.91    3.54    3.71    3.23    3.26    1.12    0.00      0      0      0       0     535 13.50
 2013 349   194   191   17.0      5   0.90   1389   2449   5132   2188   3838  12100   1316  390.0  0.424   8262      4  0.000  0.304  0.000  0.000  0.000  0.000  0.000   1.02  62.12   0.68      0   8262     64.5   1.60   0.00   0.91    3.52    3.69    3.21    3.24    1.15    0.00      0      0      0       0     535 12.70
 2013 350   195   192   17.0      5   0.90   1389   2449   5132   2188   3838  12100   1316  390.0  0.424   8262      4  0.000  0.304  0.000  0.000  0.000  0.000  0.000   1.02  62.12   0.68      0   8262     64.5   1.60   0.00   0.91    3.50    3.67    3.20    3.23    1.18    0.00      0      0      0       0     535 11.85
 2013 351   196   193   17.0      5   0.90   1389   2449   5132   2188   3838  12100   1316  390.0  0.424   8262      4  0.000  0.304  0.000  0.000  0.000  0.000  0.000   1.02  62.12   0.68      0   8262     64.5   1.60   0.00   0.91    3.49    3.65    3.18    3.21    1.21    0.00      0      0      0       0     535 11.40
 2013 352   197   194   17.0      5   0.90   1389   2449   5132   2188   3838  12100   1316  390.0  0.424   8262      4  0.000  0.304  0.000  0.000  0.000  0.000  0.000   1.02  62.12   0.68      0   8262     64.5   1.60   0.00   0.91    3.47    3.63    3.16    3.19    1.24    0.00      0      0      0       0     535 12.00
 2013 353   198   195   17.0      5   0.90   1389   2449   5132   2188   3838  12100   1316  390.0  0.424   8262      4  0.000  0.304  0.000  0.000  0.000  0.000  0.000   1.02  62.12   0.68      0   8262     64.5   1.60   0.00   0.91    3.45    3.61    3.15    3.18    1.26    0.00      0      0      0       0     535 13.05
 2013 354   199   196   17.0      5   0.90   1389   2449   5132   2188   3838  12100   1316  390.0  0.424   8262      4  0.000  0.304  0.000  0.000  0.000  0.000  0.000   1.02  62.12   0.68      0   8262     64.5   1.60   0.00   0.91    3.43    3.59    3.13    3.16    1.29    0.00      0      0      0       0     535 13.25
 2013 355   200   197   17.0      5   0.90   1389   2449   5132   2188   3838  12100   1316  390.0  0.424   8262      4  0.000  0.304  0.000  0.000  0.000  0.000  0.000   1.02  62.12   0.68      0   8262     64.5   1.60   0.00   0.91    3.41    3.57    3.12    3.15    1.32    0.00      0      0      0       0     535 13.00
 2013 356   201   198   17.0      5   0.90   1389   2449   5132   2188   3838  12100   1316  390.0  0.424   8262      4  0.000  0.304  0.000  0.000  0.000  0.000  0.000   1.02  62.12   0.68      0   8262     64.5   1.60   0.00   0.91    3.40    3.56    3.10    3.13    1.35    0.00      0      0      0       0     535 13.85
 2013 357   202   199   17.0      5   0.90   1389   2449   5132   2188   3838  12100   1316  390.0  0.424   8262      4  0.000  0.304  0.000  0.000  0.000  0.000  0.000   1.02  62.12   0.68      0   8262     64.5   1.60   0.00   0.91    3.38    3.54    3.08    3.11    1.37    0.00      0      0      0       0     535 12.70
 2013 358   203   200   17.0      5   0.90   1389   2449   5132   2188   3838  12100   1316  390.0  0.424   8262      4  0.000  0.304  0.000  0.000  0.000  0.000  0.000   1.02  62.12   0.68      0   8262     64.5   1.60   0.00   0.91    3.36    3.52    3.07    3.10    1.40    0.00      0      0      0       0     535 13.45
 2013 359   204   201   17.0      5   0.90   1389   2449   5132   2188   3838  12100   1316  390.0  0.424   8262      4  0.000  0.304  0.000  0.000  0.000  0.000  0.000   1.02  62.12   0.68      0   8262     64.5   1.60   0.00   0.91    3.35    3.50    3.05    3.08    1.43    0.00      0      0      0       0     535 12.65
 2013 360   205   202   17.0      5   0.90   1389   2449   5132   2188   3838  12100   1316  390.0  0.424   8262      4  0.000  0.304  0.000  0.000  0.000  0.000  0.000   1.02  62.12   0.68      0   8262     64.5   1.60   0.00   0.91    3.33    3.48    3.04    3.07    1.45    0.00      0      0      0       0     535 12.30
 2013 361   206   203   17.0      5   0.90   1389   2449   5132   2188   3838  12100   1316  390.0  0.424   8262      4  0.000  0.304  0.000  0.000  0.000  0.000  0.000   1.02  62.12   0.68      0   8262     64.5   1.60   0.00   0.91    3.31    3.47    3.02    3.05    1.48    0.00      0      0      0       0     535 13.65
 2013 362   207   204   17.0      5   0.90   1389   2449   5132   2188   3838  12100   1316  390.0  0.424   8262      4  0.000  0.304  0.000  0.000  0.000  0.000  0.000   1.02  62.12   0.68      0   8262     64.5   1.60   0.00   0.91    3.29    3.45    3.00    3.03    1.50    0.00      0      0      0       0     535 13.45
 2013 363   208   205   17.0      5   0.90   1389   2449   5132   2188   3838  12100   1316  390.0  0.424   8262      4  0.000  0.304  0.000  0.000  0.000  0.000  0.000   1.02  62.12   0.68      0   8262     64.5   1.60   0.00   0.91    3.28    3.43    2.99    3.02    1.53    0.00      0      0      0       0     535 14.40
