*WATER BALANCE OUTPUT FILE

*DSSAT Cropping System Model Ver. 4.7.2.000 -release      OCT 15, 2021; 17:59:33
                                                                                
*RUN   1        :             CSM335_date_1 MZCER047 ITSA1301    1              
 MODEL          : MZCER047 - Maize                                              
 EXPERIMENT     : ITSA1301 SG CALIBRATION SETUP OF SORGHUM SOWING DATES         
 DATA PATH      :                                                               
 TREATMENT  1   :             CSM335_date_1 MZCER047                            
  

!     WATER BALANCE PARAMETERS
!     ========================                 --mm--

!     Soil H20 (start) on Year/day 2013/156    291.60
!     Soil H20 (final) on Year/day 2013/363    268.50
!     Effective Irrigation                       0.00
!     Precipitation                            559.10
!     Water added with new mulch                 0.00
!     Drainage                                   0.00
!     Tiledrain flow                             0.00
!     Runoff                                     0.00
!     Mulch evaporation                          0.00
!     Soil Evaporation                         289.95
!     Transpiration                            292.24
!     Potential ET                             916.33

!     Initial mulch water content                0.00
!     Final mulch water content                  0.00

!     Final Balance                             0.010

