*Soil Inorganic Nitrogen daily output file

*DSSAT Cropping System Model Ver. 4.7.2.000 -release      OCT 15, 2021; 17:59:33
                                                                                
*RUN   1        :             CSM335_date_1 MZCER047 ITSA1301    1              
 MODEL          : MZCER047 - Maize                                              
 EXPERIMENT     : ITSA1301 SG CALIBRATION SETUP OF SORGHUM SOWING DATES         
 DATA PATH      :                                                               
 TREATMENT  1   :             CSM335_date_1 MZCER047                            
  
!                                                    NO3 (ppm) by soil depth (cm):                   NH4 (ppm) by soil depth (cm):
!                                                     0-5    5-15   15-30   30-60   60-90  90-120     0-5    5-15   15-30   30-60   60-90  90-120
@YEAR DOY   DAS  NAPC  NI#M    NIAD   NITD   NHTD    NI1D    NI2D    NI3D    NI4D    NI5D    NI6D    NH1D    NH2D    NH3D    NH4D    NH5D    NH6D    NMNC    NITC    NDNC    NIMC    AMLC   NNMNC    NUCM    NLCC    TDFC
 2013 155     0     0     0    10.2    0.0   10.2    0.00    0.00    0.00    0.00    0.00    0.00    0.60    0.60    0.60    0.60    0.60    0.60    0.00    0.00    0.00    0.00    0.00    0.00    0.00    0.00    0.00
 2013 156     1     0     0    10.4    1.8    8.6    0.11    0.10    0.10    0.10    0.10    0.11    0.67    0.51    0.51    0.50    0.50    0.50    0.22    1.77    0.00    0.03    0.00    0.19    0.00    0.00    0.00
 2013 157     2     0     0    10.8    3.2    7.6    0.10    0.19    0.21    0.19    0.19    0.19    1.04    0.48    0.44    0.41    0.41    0.41    0.73    3.21    0.00    0.11    0.00    0.62    0.00    0.00    0.00
 2013 158     3     0     0    12.1    4.4    7.7    0.30    0.21    0.29    0.25    0.26    0.26    1.29    0.83    0.55    0.35    0.34    0.34    2.17    4.42    0.00    0.31    0.00    1.86    0.00    0.00    0.00
 2013 159     4    52     2    65.4    5.7   59.7    0.53    0.36    0.38    0.31    0.31    0.32   74.71    1.12    0.66    0.29    0.29    0.29    3.70    5.68    0.00    0.53    0.00    3.17    0.00    0.00    0.00
 2013 160     5    52     2    66.3   15.5   50.8   12.93    0.54    0.48    0.35    0.36    0.36   62.34    1.32    0.74    0.24    0.24    0.24    5.10   15.56    0.00    0.96    0.00    4.13    0.00    0.00    0.00
 2013 161     6    52     2    67.3   23.9   43.3   23.25    0.75    0.60    0.39    0.40    0.40   52.01    1.47    0.81    0.20    0.20    0.20    6.43   23.97    0.00    1.36    0.00    5.08    0.00    0.00    0.00
 2013 162     7    52     2    68.2   30.9   37.3   31.62    0.98    0.73    0.43    0.43    0.43   43.63    1.59    0.86    0.17    0.17    0.17    7.69   30.95    0.00    1.71    0.00    5.98    0.00    0.00    0.00
 2013 163     8    52     2    69.1   37.2   31.9   38.69    1.39    0.88    0.45    0.46    0.46   36.28    1.68    0.91    0.14    0.14    0.14    8.94   37.22    0.00    2.04    0.00    6.89    0.00    0.00    0.00
 2013 164     9    52     2    69.9   42.5   27.4   38.39    4.74    1.13    0.48    0.48    0.49   30.13    1.74    0.94    0.12    0.12    0.12   10.26   42.62    0.00    2.47    0.00    7.79    0.00    0.00    0.00
 2013 165    10    52     2    70.8   45.0   25.8   40.78    4.94    1.25    0.49    0.50    0.50   28.07    1.76    0.98    0.10    0.10    0.10   11.59   45.08    0.00    2.94    0.00    8.65    0.00    0.00    0.00
 2013 166    11    52     2    71.6   49.1   22.4   44.38    5.73    1.38    0.51    0.51    0.52   23.58    1.75    0.99    0.09    0.09    0.08   12.81   49.23    0.00    3.37    0.00    9.44    0.00    0.00    0.00
 2013 167    12    52     2    72.4   52.8   19.6   28.23   12.28    4.00    0.54    0.53    0.53   19.77    1.74    1.01    0.07    0.07    0.07   14.06   52.89    0.00    3.82    0.00   10.24    0.00    0.00    0.00
 2013 168    13    52     2    73.5   54.4   19.1   31.73   11.28    4.19    0.56    0.54    0.54   18.52    1.86    1.16    0.06    0.06    0.06   15.69   54.53    0.00    4.33    0.00   11.36    0.00    0.00    0.00
 2013 169    14    52     2    74.6   57.5   17.1   32.90   12.38    4.48    0.56    0.54    0.55   15.66    1.80    1.28    0.05    0.05    0.05   17.31   57.63    0.00    4.84    0.00   12.47    0.00    0.00    0.00
 2013 170    15    52     2    75.7   59.3   16.4   35.82   12.04    4.54    0.57    0.55    0.55   14.72    1.74    1.37    0.05    0.04    0.04   18.98   59.41    0.00    5.39    0.00   13.60    0.00    0.00    0.00
 2013 171    16    52     2    76.8   62.1   14.7   36.15   13.39    4.79    0.57    0.55    0.56   12.41    1.69    1.43    0.04    0.04    0.04   20.57   62.15    0.00    5.91    0.00   14.66    0.00    0.00    0.00
 2013 172    17    52     2    77.9   63.7   14.1   26.51   16.15    6.58    0.75    0.56    0.56   11.64    1.63    1.47    0.03    0.03    0.03   22.19   63.84    0.00    6.46    0.00   15.73    0.00    0.00    0.00
 2013 173    18    52     2    78.9   65.6   13.3   21.75   15.96    8.26    1.21    0.56    0.56    9.83    1.74    1.62    0.03    0.03    0.03   23.82   65.74    0.00    7.05    0.00   16.78    0.00    0.00    0.00
 2013 174    19    52     2    79.9   66.6   13.3   24.97   14.85    7.97    1.41    0.56    0.57    9.34    1.84    1.75    0.02    0.02    0.02   25.36   66.70    0.00    7.61    0.00   17.75    0.00    0.00    0.00
 2013 175    20    52     2    80.9   68.6   12.4   22.83   16.09    8.49    1.56    0.56    0.57    7.90    1.75    1.87    0.02    0.02    0.02   27.05   68.69    0.00    8.22    0.00   18.83    0.00    0.00    0.00
 2013 176    21    52     2    82.0   69.6   12.5   25.86   15.18    8.40    1.63    0.56    0.57    7.55    1.85    1.98    0.02    0.02    0.02   28.76   69.66    0.00    8.86    0.00   19.90    0.00    0.00    0.00
 2013 177    22    52     2    83.1   71.8   11.3   27.25   15.68    8.69    1.61    0.56    0.57    6.40    1.75    1.87    0.02    0.02    0.02   30.45   71.93    0.00    9.48    0.00   20.97    0.03    0.00    0.00
 2013 178    23    52     2    84.0   73.3   10.7   30.52   15.13    8.72    1.59    0.56    0.57    6.12    1.66    1.78    0.02    0.01    0.01   32.20   73.56    0.00   10.13    0.00   22.07    0.17    0.00    0.00
 2013 179    24    52     2    84.9   75.2    9.7   33.58   14.96    8.73    1.57    0.56    0.57    5.17    1.56    1.68    0.02    0.01    0.01   33.81   75.58    0.00   10.73    0.00   23.08    0.34    0.00    0.00
 2013 180    25    52     2    85.6   76.7    8.9   34.60   15.10    9.00    1.58    0.56    0.57    4.44    1.50    1.61    0.02    0.01    0.01   35.37   77.31    0.00   11.31    0.00   24.06    0.55    0.00    0.00
 2013 181    26    52     2    86.4   78.1    8.3   33.39   16.30    9.26    1.58    0.56    0.57    3.83    1.44    1.55    0.02    0.01    0.01   36.86   78.89    0.00   11.86    0.00   25.00    0.71    0.00    0.00
 2013 182    27    52     2    87.1   79.4    7.8   33.23   16.87    9.49    1.58    0.56    0.58    3.38    1.40    1.50    0.02    0.01    0.01   38.41   80.32    0.00   12.45    0.00   25.96    0.93    0.00    0.00
 2013 183    28    52     2    87.8   80.4    7.4   14.01   16.62   12.81    3.45    0.57    0.58    3.03    1.37    1.46    0.02    0.01    0.01   39.87   81.59    0.00   13.01    0.00   26.86    1.17    0.00    0.00
 2013 184    29    52     2    88.4   80.6    7.8    8.27   11.47   12.41    6.03    0.91    0.58    3.09    1.49    1.54    0.03    0.01    0.01   41.36   82.05    0.00   13.60    0.00   27.76    1.42    0.00    0.00
 2013 185    30    52     2    89.1   80.8    8.3    6.92   10.01   11.95    6.57    1.37    0.57    3.16    1.62    1.63    0.04    0.01    0.01   42.89   82.51    0.00   14.17    0.00   28.72    1.71    0.00    0.00
 2013 186    31    52     2    89.8   81.1    8.7    7.74    9.71   11.43    6.58    1.63    0.57    3.23    1.75    1.71    0.06    0.01    0.01   44.41   82.99    0.00   14.72    0.00   29.69    1.98    0.00    0.00
 2013 187    32    52     2    90.6   81.4    9.2    8.84    9.52   11.06    6.52    1.84    0.57    3.29    1.87    1.79    0.07    0.02    0.01   45.99   83.53    0.00   15.28    0.00   30.71    2.24    0.00    0.00
 2013 188    33    52     2    91.3   82.5    8.8   10.53    9.75   11.04    6.44    1.83    0.57    3.03    1.81    1.71    0.08    0.02    0.01   47.70   84.98    0.00   15.88    0.00   31.83    2.62    0.00    0.00
 2013 189    34    52     2    92.2   83.7    8.5   12.29    9.91   11.05    6.38    1.82    0.57    2.81    1.76    1.63    0.08    0.03    0.01   49.34   86.37    0.00   16.44    0.00   32.90    2.82    0.00    0.00
 2013 190    35    52     2    92.8   84.7    8.1   10.32   10.83   11.50    6.41    1.83    0.57    2.57    1.70    1.57    0.08    0.03    0.01   50.98   87.78    0.00   17.02    0.00   33.97    3.22    0.00    0.00
 2013 191    36    52     2    93.3   84.7    8.6   10.51   10.63   11.48    6.44    1.84    0.57    2.66    1.82    1.66    0.09    0.03    0.01   52.75   88.41    0.00   17.63    0.00   35.11    3.91    0.00    0.00
 2013 192    37    52     2    93.8   85.7    8.2   12.33   10.82   11.39    6.34    1.84    0.57    2.46    1.75    1.57    0.09    0.04    0.01   54.50   89.89    0.00   18.25    0.00   36.25    4.52    0.00    0.00
 2013 193    38    52     2    94.6   86.7    7.9   12.85   11.02   11.59    6.33    1.84    0.57    2.30    1.69    1.51    0.09    0.04    0.01   56.26   91.32    0.00   18.86    0.00   37.40    4.92    0.00    0.00
 2013 194    39    52     2    95.0   87.5    7.5   13.32   11.17   11.74    6.30    1.85    0.58    2.11    1.63    1.44    0.10    0.04    0.01   57.98   92.73    0.00   19.46    0.00   38.51    5.60    0.00    0.00
 2013 195    40    52     2    95.6   88.4    7.2   13.78   11.33   11.91    6.28    1.86    0.58    1.93    1.58    1.39    0.10    0.04    0.01   59.62   94.06    0.00   20.05    0.00   39.57    6.09    0.00    0.00
 2013 196    41    52     2    95.8   88.9    6.9   14.20   11.45   12.02    6.24    1.86    0.58    1.74    1.52    1.34    0.10    0.04    0.01   61.22   95.36    0.00   20.62    0.00   40.60    6.85    0.00    0.00
 2013 197    42    52     2    96.1   89.5    6.6   14.65   11.56   12.13    6.20    1.87    0.58    1.55    1.47    1.29    0.10    0.05    0.01   62.78   96.63    0.00   21.18    0.00   41.60    7.61    0.00    0.00
 2013 198    43    52     2    96.5   90.2    6.3   15.12   11.68   12.26    6.17    1.87    0.58    1.38    1.41    1.25    0.11    0.05    0.01   64.28   97.84    0.00   21.72    0.00   42.56    8.15    0.00    0.00
 2013 199    44    52     2    96.8   90.7    6.1   15.55   11.78   12.36    6.14    1.88    0.58    1.22    1.37    1.21    0.11    0.05    0.01   65.71   98.98    0.00   22.24    0.00   43.47    8.78    0.00    0.00
 2013 200    45    52     2    96.9   91.0    5.8   15.94   11.84   12.43    6.09    1.88    0.58    1.07    1.32    1.18    0.11    0.05    0.01   67.07  100.05    0.00   22.74    0.00   44.33    9.55    0.00    0.00
 2013 201    46    52     2    96.7   91.0    5.7   13.10   13.40   12.46    6.03    1.88    0.58    1.03    1.27    1.14    0.11    0.05    0.01   68.47  101.08    0.00   23.24    0.00   45.24   10.60    0.00    0.00
 2013 202    47    52     2    96.7   91.0    5.8   13.06   13.46   12.49    5.98    1.88    0.58    1.24    1.28    1.11    0.11    0.05    0.01   70.08  101.99    0.00   23.80    0.00   46.28   11.62    0.00    0.00
 2013 203    48    52     2    97.0   91.3    5.8   14.28   13.42   12.40    5.91    1.88    0.58    1.31    1.28    1.08    0.11    0.05    0.01   71.64  103.00    0.00   24.34    0.00   47.31   12.34    0.00    0.00
 2013 204    49    52     2    97.2   91.5    5.7   14.57   13.44   12.45    5.87    1.88    0.59    1.32    1.27    1.05    0.11    0.05    0.01   73.13  104.00    0.00   24.85    0.00   48.28   13.19    0.00    0.00
 2013 205    50    86     3   130.9   91.3   39.6   14.80   13.41   12.44    5.81    1.87    0.59   49.17    1.25    1.02    0.11    0.05    0.01   74.57  105.01    0.00   25.35    0.00   49.21   14.43    0.00    0.00
 2013 206    51    86     3   130.2   97.3   33.0   23.55   13.41   12.46    5.76    1.87    0.59   39.98    1.23    0.99    0.11    0.05    0.01   75.92  112.03    0.00   25.92    0.00   50.01   15.82    0.00    0.00
 2013 207    52    86     3   130.1  102.3   27.7   30.70   13.43   12.49    5.72    1.87    0.59   32.78    1.20    0.96    0.11    0.05    0.01   77.20  117.86    0.00   26.43    0.00   50.77   16.76    0.00    0.00
 2013 208    53    86     3   129.6  106.2   23.5   36.77   13.37   12.46    5.66    1.86    0.59   26.94    1.16    0.93    0.11    0.05    0.01   78.43  122.83    0.00   26.92    0.00   51.51   17.90    0.00    0.00
 2013 209    54    86     3   129.1  109.3   19.9   41.87   13.30   12.42    5.59    1.85    0.59   22.06    1.12    0.90    0.11    0.05    0.01   79.60  127.10    0.00   27.38    0.00   52.22   19.11    0.00    0.00
 2013 210    55    86     3   128.4  111.5   16.9   46.08   13.20   12.33    5.50    1.83    0.59   18.06    1.08    0.87    0.11    0.05    0.01   80.71  130.72    0.00   27.81    0.00   52.91   20.50    0.00    0.00
 2013 211    56    86     3   128.1  113.6   14.6   49.44   13.15   12.31    5.45    1.83    0.59   14.91    1.04    0.84    0.11    0.05    0.01   81.74  133.69    0.00   28.19    0.00   53.55   21.44    0.00    0.00
 2013 212    57    86     3   126.7  114.1   12.6   52.25   12.92   12.12    5.33    1.80    0.59   12.31    0.99    0.81    0.11    0.05    0.01   82.71  136.25    0.00   28.54    0.00   54.16   23.44    0.00    0.00
 2013 213    58    86     3   126.1  115.1   11.0   54.59   12.81   12.03    5.26    1.78    0.59   10.17    0.95    0.79    0.11    0.05    0.01   83.62  138.44    0.00   28.87    0.00   54.75   24.71    0.00    0.00
 2013 214    59    86     3   125.0  115.4    9.6   56.53   12.63   11.89    5.16    1.76    0.60    8.41    0.91    0.77    0.11    0.05    0.01   84.49  140.34    0.00   29.17    0.00   55.32   26.29    0.00    0.00
 2013 215    60    86     3   124.0  115.5    8.5   58.15   12.45   11.75    5.07    1.74    0.60    6.98    0.87    0.75    0.11    0.05    0.01   85.31  141.98    0.00   29.45    0.00   55.86   27.85    0.00    0.00
 2013 216    61    86     3   122.4  114.9    7.6   59.48   12.16   11.51    4.93    1.71    0.60    5.83    0.83    0.72    0.11    0.05    0.01   86.12  143.41    0.00   29.72    0.00   56.40   30.00    0.00    0.00
 2013 217    62    86     3   121.0  114.2    6.8   60.58   11.91   11.30    4.81    1.68    0.60    4.92    0.79    0.70    0.11    0.05    0.01   86.90  144.67    0.00   29.98    0.00   56.91   31.93    0.00    0.00
 2013 218    63    86     3   119.9  113.7    6.2   61.48   11.71   11.14    4.72    1.65    0.60    4.19    0.75    0.68    0.10    0.05    0.01   87.64  145.76    0.00   30.22    0.00   57.41   33.54    0.00    0.00
 2013 219    64    86     3   118.1  112.5    5.6   62.24   11.40   10.87    4.58    1.62    0.60    3.60    0.72    0.66    0.10    0.05    0.01   88.35  146.75    0.00   30.45    0.00   57.89   35.77    0.00    0.00
 2013 220    65    86     3   117.2  112.0    5.2   62.90   11.22   10.74    4.49    1.60    0.60    3.11    0.68    0.64    0.10    0.05    0.01   89.03  147.65    0.00   30.67    0.00   58.36   37.18    0.00    0.00
 2013 221    66    86     3   114.5  109.8    4.7   63.61   10.75   10.32    4.29    1.54    0.60    2.57    0.64    0.61    0.10    0.05    0.01   89.70  148.58    0.00   30.90    0.00   58.80   40.28    0.00    0.00
 2013 222    67    86     3   112.3  108.1    4.2   53.62   15.22   10.12    4.19    1.51    0.60    2.12    0.61    0.59    0.09    0.05    0.01   90.42  149.41    0.00   31.19    0.00   59.23   42.90    0.00    0.00
 2013 223    68    86     3   110.0  105.9    4.2   51.38   15.42    9.94    4.09    1.49    0.60    2.07    0.61    0.57    0.09    0.05    0.01   91.32  149.99    0.00   31.55    0.00   59.77   45.73    0.00    0.00
 2013 224    69    86     3   107.1  103.2    3.9   45.30   17.59    9.62    3.95    1.45    0.60    1.82    0.61    0.54    0.08    0.05    0.01   92.19  150.72    0.00   31.90    0.00   60.29   49.15    0.00    0.00
 2013 225    70    86     3   104.6  100.7    3.9   43.73   17.47    9.36    3.83    1.42    0.60    1.84    0.62    0.52    0.08    0.05    0.01   93.10  151.27    0.00   32.25    0.00   60.85   52.23    0.00    0.00
 2013 226    71    86     3   101.9   98.2    3.7   43.41   16.75    9.09    3.70    1.38    0.61    1.68    0.62    0.50    0.08    0.05    0.01   93.97  151.95    0.00   32.58    0.00   61.39   55.46    0.00    0.00
 2013 227    72    86     3    99.6   96.0    3.5   42.49   16.28    8.94    3.60    1.36    0.61    1.53    0.61    0.48    0.07    0.05    0.01   94.76  152.59    0.00   32.87    0.00   61.89   58.33    0.00    0.00
 2013 228    73    86     3    97.4   94.0    3.3   41.63   15.86    8.80    3.51    1.33    0.61    1.39    0.59    0.46    0.07    0.05    0.01   95.48  153.21    0.00   33.12    0.00   62.35   60.97    0.00    0.00
 2013 229    74    86     3    94.4   91.3    3.1   40.56   15.25    8.61    3.38    1.30    0.61    1.24    0.56    0.44    0.07    0.05    0.01   96.10  153.81    0.00   33.34    0.00   62.77   64.33    0.00    0.00
 2013 230    75    86     3    91.8   88.9    2.9   40.20   14.66    8.39    3.23    1.25    0.61    1.11    0.52    0.41    0.07    0.05    0.01   96.63  154.37    0.00   33.51    0.00   63.12   67.27    0.00    0.00
 2013 231    76    86     3    90.2   87.5    2.7   40.58   14.21    8.22    3.11    1.21    0.61    1.00    0.47    0.38    0.06    0.05    0.01   97.09  154.90    0.00   33.65    0.00   63.43   69.22    0.00    0.00
 2013 232    77    86     3    88.1   85.5    2.5   39.38   13.92    8.12    3.02    1.18    0.61    0.98    0.43    0.35    0.06    0.05    0.01   97.61  155.39    0.00   33.83    0.00   63.78   71.70    0.00    0.00
 2013 233    78    86     3    87.1   84.7    2.4   38.82   13.80    8.09    2.98    1.17    0.61    0.94    0.39    0.33    0.06    0.05    0.01   98.06  155.84    0.00   33.98    0.00   64.08   73.00    0.00    0.00
 2013 234    79    86     3    84.2   82.0    2.2   26.97   18.48    7.96    2.87    1.13    0.61    0.93    0.35    0.30    0.05    0.05    0.01   98.50  156.26    0.00   34.12    0.00   64.37   76.17    0.00    0.00
 2013 235    80    86     3    84.0   81.6    2.3   26.99   18.27    7.97    2.85    1.13    0.61    1.00    0.41    0.28    0.05    0.05    0.01   99.19  156.64    0.00   34.36    0.00   64.83   76.87    0.00    0.00
 2013 236    81    86     3    82.1   79.8    2.3   25.91   17.86    7.91    2.79    1.10    0.62    1.01    0.44    0.25    0.05    0.05    0.01   99.76  157.02    0.00   34.54    0.00   65.21   79.08    0.00    0.00
 2013 237    82    86     3    79.8   77.5    2.3   12.82   19.68   10.18    2.72    1.07    0.62    1.04    0.44    0.24    0.04    0.05    0.01  100.29  157.39    0.00   34.71    0.00   65.57   81.80    0.00    0.00
 2013 238    83    86     3    78.3   75.7    2.6   12.10   18.46   10.49    2.67    1.05    0.62    1.11    0.58    0.28    0.04    0.05    0.01  101.27  157.69    0.00   35.05    0.00   66.21   83.94    0.00    0.00
 2013 239    84    86     3    77.5   74.6    2.9   12.58   17.98   10.23    2.64    1.04    0.62    1.20    0.68    0.33    0.04    0.05    0.01  102.36  158.08    0.00   35.43    0.00   66.93   85.43    0.00    0.00
 2013 240    85    86     3    76.5   73.4    3.1   12.57   17.61   10.03    2.60    1.03    0.62    1.25    0.75    0.37    0.04    0.05    0.01  103.34  158.50    0.00   35.76    0.00   67.58   87.03    0.00    0.00
 2013 241    86    86     3    75.7   72.4    3.3    8.57   17.61   10.98    2.58    1.02    0.62    1.26    0.79    0.40    0.04    0.05    0.01  104.23  158.94    0.00   36.06    0.00   68.17   88.46    0.00    0.00
 2013 242    87    86     3    73.8   70.2    3.6    8.04   16.71   10.89    2.52    1.00    0.62    1.32    0.91    0.46    0.04    0.05    0.01  105.31  159.30    0.00   36.43    0.00   68.88   91.05    0.00    0.00
 2013 243    88    86     3    73.7   69.8    3.9    6.74   16.07   11.60    2.50    0.99    0.62    1.47    0.96    0.51    0.04    0.04    0.01  106.39  159.72    0.00   36.79    0.00   69.59   91.90    0.00    0.00
 2013 244    89    86     3    72.6   68.4    4.2    6.21   15.09   11.87    2.46    0.98    0.62    1.60    1.07    0.56    0.04    0.04    0.01  107.53  160.05    0.00   37.19    0.00   70.34   93.70    0.00    0.00
 2013 245    90    86     3    71.2   66.6    4.6    5.12   13.70   12.48    2.41    0.95    0.62    1.72    1.18    0.61    0.03    0.04    0.01  108.72  160.43    0.00   37.60    0.00   71.12   95.91    0.00    0.00
 2013 246    91    86     3    71.5   66.6    5.0    3.79   11.60   13.35    2.87    0.95    0.62    1.86    1.30    0.68    0.03    0.04    0.01  109.98  160.83    0.00   38.04    0.00   71.94   96.39    0.00    0.00
 2013 247    92    86     3    70.9   65.4    5.5    2.88    9.62   13.12    3.54    0.94    0.62    2.00    1.41    0.81    0.03    0.04    0.01  111.39  161.14    0.01   38.55    0.00   72.85   97.90    0.00    0.00
 2013 248    93    86     3    70.8   64.8    6.1    2.37    8.22   12.65    4.19    0.94    0.62    2.16    1.53    0.92    0.04    0.04    0.01  112.80  161.48    0.06   39.02    0.00   73.77   98.86    0.00    0.00
 2013 249    94    86     3    71.4   64.8    6.6    2.34    7.80   12.20    4.56    0.94    0.62    2.32    1.66    1.03    0.05    0.04    0.01  114.13  161.80    0.12   39.46    0.00   74.67   99.10    0.00    0.00
 2013 250    95    86     3    71.7   64.6    7.1    2.47    7.53   11.76    4.80    0.94    0.62    2.46    1.77    1.14    0.05    0.04    0.01  115.53  162.19    0.16   39.92    0.00   75.61   99.69    0.00    0.00
 2013 251    96    86     3    70.9   63.9    7.0    2.41    7.19   11.56    4.87    0.93    0.62    2.37    1.72    1.15    0.06    0.04    0.01  117.04  163.18    0.16   40.40    0.00   76.64  101.52    0.00    0.00
 2013 252    97    86     3    70.1   62.7    7.5    2.10    6.42   11.14    5.11    0.92    0.62    2.47    1.80    1.25    0.07    0.04    0.01  118.49  163.61    0.16   40.87    0.00   77.62  103.32    0.00    0.00
 2013 253    98    86     3    68.8   61.0    7.8    1.90    5.85   10.52    5.26    0.90    0.63    2.55    1.88    1.33    0.07    0.04    0.01  119.87  164.02    0.16   41.30    0.00   78.56  105.61    0.00    0.00
 2013 254    99    86     3    68.9   60.7    8.3    1.45    4.80    9.76    6.00    0.90    0.63    2.66    1.97    1.43    0.08    0.04    0.01  121.25  164.47    0.16   41.73    0.00   79.53  106.42    0.00    0.00
 2013 255   100    86     3    69.6   60.8    8.8    1.39    4.43    9.29    6.26    1.04    0.63    2.80    2.09    1.53    0.08    0.04    0.01  122.67  164.93    0.16   42.14    0.00   80.53  106.73    0.00    0.00
 2013 256   101    86     3    70.6   61.3    9.3    1.51    4.32    8.98    6.42    1.15    0.63    2.94    2.21    1.65    0.09    0.04    0.01  124.18  165.46    0.26   42.58    0.00   81.60  106.73    0.00    0.00
 2013 257   102    86     3    71.6   61.8    9.8    1.72    4.30    8.74    6.48    1.30    0.63    3.07    2.32    1.75    0.10    0.04    0.01  125.71  166.04    0.33   43.02    0.00   82.69  106.73    0.00    0.00
 2013 258   103    86     3    72.8   63.3    9.5    1.86    4.44    8.91    6.67    1.31    0.63    2.93    2.24    1.70    0.10    0.05    0.01  127.35  167.53    0.33   43.48    0.00   83.87  106.73    0.00    0.00
 2013 259   104    86     3    73.9   63.9   10.0    2.08    4.44    8.88    6.79    1.31    0.63    3.06    2.35    1.80    0.10    0.05    0.01  128.92  168.15    0.33   43.94    0.00   84.99  106.73    0.00    0.00
 2013 260   105    86     3    75.0   64.6   10.5    2.34    4.54    8.90    6.86    1.32    0.63    3.17    2.45    1.90    0.10    0.05    0.01  130.51  168.84    0.33   44.39    0.00   86.12  106.73    0.00    0.00
 2013 261   106    86     3    76.1   66.1   10.0    2.88    4.96    9.16    6.85    1.32    0.63    3.00    2.33    1.83    0.10    0.06    0.01  132.05  170.36    0.33   44.84    0.00   87.22  106.73    0.00    0.00
 2013 262   107    86     3    77.2   67.4    9.8    2.67    5.29    9.51    6.90    1.33    0.63    3.10    2.22    1.75    0.11    0.06    0.01  133.58  171.70    0.33   45.28    0.00   88.30  106.73    0.00    0.00
 2013 263   108    86     3    78.3   68.4    9.9    2.83    5.35    9.77    6.96    1.34    0.63    3.20    2.32    1.69    0.10    0.06    0.01  135.12  172.69    0.33   45.74    0.00   89.38  106.73    0.00    0.00
 2013 264   109    86     3    79.4   69.4   10.0    3.16    5.48   10.02    6.96    1.35    0.63    3.29    2.41    1.63    0.10    0.06    0.01  136.69  173.71    0.33   46.21    0.00   90.48  106.73    0.00    0.00
 2013 265   110    86     3    80.5   71.0    9.5    3.93    5.90   10.23    6.95    1.35    0.63    3.06    2.27    1.58    0.10    0.06    0.01  138.27  175.30    0.33   46.68    0.00   91.59  106.73    0.00    0.00
 2013 266   111    86     3    81.5   72.6    9.0    4.48    6.26   10.48    6.97    1.36    0.63    2.82    2.13    1.52    0.10    0.06    0.01  139.78  176.85    0.33   47.14    0.00   92.64  106.73    0.00    0.00
 2013 267   112    86     3    82.5   74.0    8.5    5.01    6.58   10.72    6.98    1.37    0.63    2.58    2.00    1.46    0.10    0.06    0.01  141.17  178.30    0.33   47.57    0.00   93.60  106.73    0.00    0.00
 2013 268   113    86     3    83.4   75.4    8.0    5.50    6.88   10.94    7.00    1.38    0.63    2.35    1.88    1.39    0.09    0.06    0.01  142.45  179.66    0.33   47.97    0.00   94.48  106.73    0.00    0.00
 2013 269   114    86     3    84.2   76.7    7.5    5.98    7.16   11.15    7.01    1.39    0.63    2.12    1.76    1.33    0.09    0.06    0.01  143.63  180.96    0.33   48.35    0.00   95.28  106.73    0.00    0.00
 2013 270   115    86     3    85.0   77.9    7.1    6.42    7.42   11.36    7.02    1.40    0.63    1.98    1.64    1.26    0.09    0.06    0.01  144.78  182.19    0.33   48.71    0.00   96.07  106.73    0.00    0.00
 2013 271   116    86     3    85.7   79.0    6.6    6.84    7.66   11.55    7.04    1.42    0.64    1.82    1.52    1.18    0.08    0.06    0.01  145.80  183.34    0.33   49.03    0.00   96.77  106.73    0.00    0.00
 2013 272   117    86     3    86.3   80.1    6.1    7.25    7.88   11.73    7.05    1.43    0.64    1.66    1.40    1.10    0.08    0.06    0.01  146.70  184.43    0.33   49.31    0.00   97.39  106.73    0.00    0.00
 2013 273   118    86     3    86.8   81.2    5.6    6.66    8.59   11.91    7.06    1.44    0.64    1.49    1.28    1.01    0.07    0.06    0.01  147.52  185.50    0.33   49.57    0.00   97.95  106.73    0.00    0.00
 2013 274   119    86     3    86.5   81.1    5.4    6.64    8.74   11.92    6.98    1.43    0.64    1.66    1.19    0.92    0.07    0.06    0.01  148.49  186.38    0.33   49.86    0.00   98.63  107.78    0.00    0.00
 2013 275   120    86     3    86.1   81.0    5.1    6.83    8.98   11.87    6.88    1.42    0.64    1.64    1.11    0.84    0.07    0.06    0.01  149.41  187.28    0.33   50.13    0.00   99.28  108.82    0.00    0.00
 2013 276   121    86     3    83.9   79.1    4.8    6.74    9.16   11.51    6.63    1.38    0.64    1.61    1.04    0.77    0.06    0.06    0.01  150.27  188.12    0.33   50.38    0.00   99.89  111.56    0.00    0.00
 2013 277   122    86     3    82.1   77.5    4.6    6.06    9.63   11.16    6.40    1.35    0.64    1.60    0.99    0.71    0.06    0.06    0.01  151.12  188.88    0.33   50.62    0.00  100.50  114.05    0.00    0.00
 2013 278   123    86     3    80.9   76.3    4.6    4.70    9.58   11.48    6.23    1.32    0.64    1.73    1.01    0.66    0.06    0.06    0.01  152.01  189.47    0.33   50.87    0.00  101.14  115.87    0.00    0.00
 2013 279   124    86     3    79.3   74.5    4.8    3.39    8.30   12.40    6.03    1.29    0.64    1.84    1.15    0.64    0.05    0.06    0.01  153.04  189.91    0.33   51.16    0.00  101.87  118.15    0.00    0.00
 2013 280   125    86     3    79.0   73.8    5.2    2.99    7.77   12.57    6.03    1.28    0.64    1.97    1.27    0.71    0.05    0.06    0.01  154.29  190.33    0.33   51.57    0.00  102.72  119.33    0.00    0.00
 2013 281   126    86     3    77.5   71.9    5.6    2.03    6.06   11.72    6.78    1.24    0.64    2.07    1.38    0.78    0.05    0.06    0.01  155.60  190.77    0.33   52.00    0.00  103.60  121.73    0.00    0.00
 2013 282   127    86     3    75.9   69.9    6.0    2.30    5.78   10.85    6.81    1.21    0.64    2.18    1.48    0.89    0.05    0.06    0.01  156.89  191.09    0.33   52.40    0.00  104.50  124.20    0.00    0.00
 2013 283   128    86     3    75.3   69.0    6.3    2.77    5.89   10.61    6.64    1.19    0.64    2.13    1.48    1.02    0.05    0.06    0.01  158.32  191.76    0.33   52.83    0.00  105.49  125.78    0.00    0.00
 2013 284   129    86     3    73.8   67.6    6.3    3.28    5.93   10.31    6.39    1.16    0.64    2.05    1.46    1.04    0.06    0.06    0.01  159.69  192.62    0.33   53.24    0.00  106.45  128.21    0.00    0.00
 2013 285   130    86     3    72.2   66.0    6.1    3.53    5.90   10.06    6.15    1.13    0.64    1.91    1.41    1.05    0.06    0.06    0.01  161.01  193.54    0.33   53.64    0.00  107.37  130.80    0.00    0.00
 2013 286   131    86     3    70.8   64.9    5.9    3.78    5.89    9.87    5.96    1.10    0.64    1.77    1.36    1.05    0.06    0.06    0.01  162.23  194.45    0.33   54.01    0.00  108.22  133.00    0.00    0.00
 2013 287   132    86     3    69.5   63.8    5.8    4.00    5.88    9.70    5.76    1.08    0.64    1.72    1.30    1.04    0.06    0.06    0.01  163.46  195.37    0.33   54.37    0.00  109.10  135.16    0.00    0.00
 2013 288   133    86     3    68.1   62.5    5.6    4.21    5.86    9.51    5.57    1.05    0.65    1.66    1.23    1.01    0.06    0.06    0.01  164.61  196.29    0.33   54.70    0.00  109.91  137.39    0.00    0.00
 2013 289   134    86     3    66.9   61.5    5.3    4.43    5.85    9.36    5.40    1.03    0.65    1.56    1.15    0.97    0.06    0.05    0.01  165.66  197.21    0.33   55.00    0.00  110.66  139.40    0.00    0.00
 2013 290   135    86     3    65.4   60.4    5.0    4.65    5.82    9.19    5.22    1.01    0.65    1.44    1.06    0.91    0.06    0.05    0.01  166.60  198.12    0.33   55.27    0.00  111.33  141.50    0.00    0.00
 2013 291   136    86     3    63.9   59.3    4.6    4.93    5.77    9.01    5.04    0.99    0.65    1.32    0.98    0.85    0.06    0.05    0.01  167.45  199.00    0.33   55.51    0.00  111.94  143.59    0.00    0.00
 2013 292   137    86     3    62.2   57.9    4.3    5.25    5.69    8.77    4.83    0.96    0.65    1.20    0.89    0.79    0.05    0.05    0.01  168.21  199.85    0.33   55.72    0.00  112.49  145.88    0.00    0.00
 2013 293   138    86     3    60.6   56.6    3.9    5.55    5.59    8.54    4.65    0.93    0.65    1.07    0.81    0.72    0.05    0.05    0.01  168.88  200.63    0.33   55.91    0.00  112.97  148.01    0.00    0.00
 2013 294   139    86     3    58.7   55.1    3.6    5.82    5.48    8.26    4.45    0.90    0.65    0.95    0.73    0.66    0.05    0.05    0.01  169.46  201.34    0.33   56.07    0.00  113.39  150.28    0.00    0.00
 2013 295   140    86     3    56.8   53.6    3.3    6.06    5.36    7.99    4.26    0.87    0.65    0.83    0.67    0.61    0.05    0.05    0.01  169.94  201.99    0.33   56.20    0.00  113.75  152.50    0.00    0.00
 2013 296   141    86     3    55.0   52.0    3.0    6.28    5.23    7.72    4.08    0.83    0.65    0.72    0.60    0.55    0.04    0.05    0.01  170.36  202.58    0.33   56.31    0.00  114.05  154.62    0.00    0.00
 2013 297   142    86     3    55.3   52.6    2.8    6.48    5.32    7.81    4.09    0.84    0.66    0.70    0.55    0.50    0.04    0.05    0.01  170.79  203.10    0.33   56.41    0.00  114.37  154.62    0.00    0.00
 2013 298   143    86     3    55.6   53.1    2.6    6.68    5.40    7.89    4.09    0.85    0.66    0.72    0.49    0.46    0.04    0.05    0.01  171.18  203.59    0.33   56.51    0.00  114.68  154.62    0.00    0.00
 2013 299   144    86     3    56.0   53.5    2.5    6.87    5.46    7.96    4.10    0.86    0.66    0.82    0.43    0.41    0.03    0.05    0.01  171.62  204.05    0.33   56.61    0.00  115.02  154.62    0.00    0.00
 2013 300   145    86     3    56.2   54.0    2.3    7.09    5.52    8.02    4.10    0.87    0.66    0.83    0.38    0.37    0.03    0.05    0.01  171.97  204.48    0.33   56.69    0.00  115.28  154.62    0.00    0.00
 2013 301   146    86     3    56.5   54.4    2.1    7.31    5.57    8.08    4.11    0.88    0.66    0.80    0.34    0.33    0.03    0.05    0.01  172.26  204.89    0.33   56.76    0.00  115.51  154.62    0.00    0.00
 2013 302   147    86     3    56.7   54.7    1.9    7.53    5.61    8.13    4.11    0.89    0.66    0.76    0.29    0.29    0.03    0.05    0.01  172.50  205.27    0.33   56.81    0.00  115.69  154.62    0.00    0.00
 2013 303   148    86     3    56.8   55.1    1.7    7.73    5.64    8.17    4.12    0.90    0.66    0.70    0.25    0.26    0.02    0.05    0.01  172.70  205.61    0.33   56.86    0.00  115.84  154.62    0.00    0.00
 2013 304   149    86     3    56.9   55.4    1.6    7.93    5.66    8.21    4.12    0.91    0.66    0.63    0.22    0.23    0.02    0.05    0.01  172.87  205.91    0.33   56.89    0.00  115.97  154.62    0.00    0.00
 2013 305   150    86     3    57.0   55.7    1.4    8.11    5.68    8.24    4.12    0.92    0.66    0.56    0.19    0.20    0.02    0.05    0.01  173.00  206.19    0.33   56.92    0.00  116.08  154.62    0.00    0.00
 2013 306   151    86     3    57.1   55.9    1.2    8.29    5.69    8.26    4.12    0.92    0.66    0.49    0.17    0.17    0.02    0.05    0.01  173.12  206.44    0.33   56.94    0.00  116.17  154.62    0.00    0.00
 2013 307   152    86     3    57.2   56.1    1.1    8.45    5.70    8.28    4.13    0.93    0.67    0.41    0.15    0.15    0.01    0.04    0.01  173.22  206.66    0.33   56.96    0.00  116.25  154.62    0.00    0.00
 2013 308   153    86     3    57.3   56.3    1.0    8.60    5.71    8.30    4.13    0.94    0.67    0.35    0.13    0.13    0.01    0.04    0.01  173.32  206.85    0.33   56.99    0.00  116.33  154.62    0.00    0.00
 2013 309   154    86     3    57.4   56.5    0.9    8.74    5.71    8.31    4.13    0.95    0.67    0.30    0.12    0.11    0.01    0.04    0.01  173.42  207.03    0.33   57.01    0.00  116.42  154.62    0.00    0.00
 2013 310   155    86     3    57.5   56.7    0.8    8.87    5.72    8.32    4.13    0.96    0.67    0.26    0.11    0.10    0.01    0.04    0.01  173.52  207.19    0.33   57.03    0.00  116.50  154.62    0.00    0.00
 2013 311   156    86     3    57.5   56.8    0.7    8.98    5.71    8.33    4.13    0.97    0.67    0.23    0.10    0.09    0.01    0.04    0.01  173.62  207.33    0.33   57.05    0.00  116.58  154.62    0.00    0.00
 2013 312   157    86     3    57.6   56.9    0.7    9.09    5.71    8.34    4.13    0.97    0.67    0.21    0.09    0.08    0.01    0.04    0.01  173.72  207.46    0.33   57.07    0.00  116.65  154.62    0.00    0.00
 2013 313   158    86     3    57.7   57.0    0.7    9.20    5.71    8.34    4.13    0.98    0.67    0.19    0.08    0.08    0.01    0.04    0.01  173.82  207.58    0.33   57.09    0.00  116.73  154.62    0.00    0.00
 2013 314   159    86     3    57.8   57.1    0.6    9.30    5.70    8.35    4.13    0.99    0.67    0.18    0.08    0.07    0.01    0.04    0.01  173.91  207.68    0.33   57.10    0.00  116.81  154.62    0.00    0.00
 2013 315   160    86     3    57.8   57.3    0.6    9.40    5.70    8.35    4.13    1.00    0.67    0.17    0.08    0.07    0.01    0.04    0.01  174.01  207.79    0.33   57.12    0.00  116.88  154.62    0.00    0.00
 2013 316   161    86     3    57.9   57.4    0.6    9.50    5.69    8.35    4.13    1.00    0.67    0.16    0.07    0.06    0.01    0.04    0.01  174.10  207.89    0.33   57.14    0.00  116.96  154.62    0.00    0.00
 2013 317   162    86     3    58.0   57.4    0.5    9.59    5.69    8.35    4.13    1.01    0.68    0.15    0.07    0.06    0.01    0.04    0.01  174.20  207.98    0.33   57.16    0.00  117.03  154.62    0.00    0.00
 2013 318   163    86     3    58.1   57.5    0.6    9.70    5.68    8.35    4.13    1.02    0.68    0.20    0.07    0.06    0.01    0.04    0.01  174.35  208.08    0.33   57.19    0.00  117.15  154.62    0.00    0.00
 2013 319   164    86     3    58.3   57.6    0.6    6.57    7.29    8.35    4.13    1.03    0.68    0.31    0.07    0.06    0.01    0.04    0.01  174.56  208.18    0.33   57.24    0.00  117.32  154.62    0.00    0.00
 2013 320   165    86     3    58.7   57.7    1.0    4.78    8.22    8.35    4.13    1.03    0.68    0.56    0.16    0.06    0.01    0.04    0.01  175.07  208.27    0.33   57.35    0.00  117.72  154.62    0.00    0.00
 2013 321   166    86     3    59.3   57.9    1.4    5.54    8.27    8.21    4.09    1.03    0.68    0.76    0.37    0.05    0.01    0.04    0.01  175.83  208.43    0.33   57.52    0.00  118.31  154.62    0.00    0.00
 2013 322   167    86     3    59.8   58.1    1.6    5.77    8.29    8.21    4.09    1.04    0.68    0.86    0.51    0.05    0.01    0.03    0.01  176.47  208.65    0.33   57.67    0.00  118.80  154.62    0.00    0.00
 2013 323   168    86     3    60.2   58.4    1.8    6.02    8.34    8.21    4.09    1.05    0.68    0.88    0.60    0.05    0.01    0.03    0.01  177.00  208.92    0.33   57.80    0.00  119.20  154.62    0.00    0.00
 2013 324   169    86     3    60.5   58.7    1.8    6.28    8.39    8.21    4.09    1.05    0.68    0.87    0.63    0.05    0.01    0.03    0.01  177.44  209.22    0.33   57.90    0.00  119.53  154.62    0.00    0.00
 2013 325   170    86     3    60.8   59.0    1.8    6.55    8.46    8.21    4.09    1.06    0.68    0.93    0.61    0.05    0.01    0.03    0.01  177.84  209.52    0.33   57.99    0.00  119.84  154.62    0.00    0.00
 2013 326   171    86     3    61.0   59.3    1.7    6.82    8.52    8.21    4.09    1.07    0.68    0.90    0.57    0.05    0.01    0.03    0.01  178.15  209.83    0.33   58.07    0.00  120.09  154.62    0.00    0.00
 2013 327   172    86     3    61.2   59.6    1.6    7.09    8.58    8.20    4.09    1.07    0.68    0.86    0.53    0.05    0.01    0.03    0.01  178.41  210.14    0.33   58.13    0.00  120.29  154.62    0.00    0.00
 2013 328   173    86     3    61.4   59.9    1.5    7.35    8.63    8.20    4.09    1.08    0.69    0.79    0.48    0.05    0.01    0.03    0.01  178.63  210.42    0.33   58.18    0.00  120.45  154.62    0.00    0.00
 2013 329   174    86     3    61.6   60.1    1.4    7.60    8.68    8.20    4.09    1.08    0.69    0.72    0.43    0.05    0.01    0.03    0.01  178.81  210.69    0.33   58.22    0.00  120.60  154.62    0.00    0.00
 2013 330   175    86     3    61.7   60.4    1.3    7.85    8.71    8.20    4.09    1.09    0.69    0.65    0.38    0.05    0.01    0.03    0.01  178.97  210.93    0.33   58.25    0.00  120.71  154.62    0.00    0.00
 2013 331   176    86     3    61.8   60.6    1.2    8.07    8.74    8.20    4.09    1.10    0.69    0.57    0.33    0.05    0.01    0.03    0.01  179.09  211.15    0.33   58.28    0.00  120.81  154.62    0.00    0.00
 2013 332   177    86     3    61.8   60.8    1.0    8.28    8.75    8.20    4.09    1.10    0.69    0.49    0.29    0.05    0.01    0.03    0.01  179.19  211.35    0.33   58.30    0.00  120.89  154.62    0.00    0.00
 2013 333   178    86     3    61.9   61.0    0.9    8.49    8.76    8.19    4.09    1.11    0.69    0.42    0.25    0.05    0.00    0.03    0.01  179.28  211.53    0.33   58.32    0.00  120.96  154.62    0.00    0.00
 2013 334   179    86     3    62.0   61.1    0.8    8.68    8.77    8.19    4.09    1.11    0.69    0.36    0.21    0.05    0.00    0.03    0.01  179.36  211.69    0.33   58.34    0.00  121.02  154.62    0.00    0.00
 2013 335   180    86     3    62.0   61.3    0.7    8.85    8.76    8.19    4.09    1.12    0.69    0.31    0.19    0.05    0.00    0.03    0.01  179.45  211.83    0.33   58.36    0.00  121.09  154.62    0.00    0.00
 2013 336   181    86     3    62.1   61.4    0.7    9.02    8.76    8.19    4.09    1.12    0.69    0.27    0.16    0.05    0.00    0.03    0.01  179.53  211.96    0.33   58.38    0.00  121.15  154.62    0.00    0.00
 2013 337   182    86     3    62.2   61.5    0.6    9.18    8.75    8.19    4.08    1.13    0.70    0.24    0.14    0.05    0.00    0.03    0.01  179.61  212.08    0.33   58.40    0.00  121.22  154.62    0.00    0.00
 2013 338   183    86     3    62.2   61.6    0.6    9.33    8.73    8.19    4.08    1.13    0.70    0.22    0.12    0.05    0.00    0.03    0.01  179.70  212.19    0.33   58.42    0.00  121.28  154.62    0.00    0.00
 2013 339   184    86     3    62.3   61.7    0.6    9.48    8.71    8.19    4.08    1.14    0.70    0.20    0.11    0.05    0.00    0.03    0.01  179.78  212.29    0.33   58.43    0.00  121.35  154.62    0.00    0.00
 2013 340   185    86     3    62.4   61.8    0.5    9.63    8.69    8.18    4.08    1.14    0.70    0.18    0.10    0.05    0.00    0.02    0.01  179.87  212.39    0.33   58.45    0.00  121.41  154.62    0.00    0.00
 2013 341   186    86     3    62.4   61.9    0.5    9.77    8.67    8.18    4.08    1.15    0.70    0.17    0.09    0.05    0.00    0.02    0.01  179.95  212.48    0.33   58.47    0.00  121.48  154.62    0.00    0.00
 2013 342   187    86     3    62.5   62.0    0.5    9.91    8.65    8.18    4.08    1.15    0.70    0.16    0.08    0.05    0.00    0.02    0.01  180.03  212.56    0.33   58.49    0.00  121.54  154.62    0.00    0.00
 2013 343   188    86     3    62.6   62.1    0.5   10.04    8.63    8.18    4.08    1.15    0.70    0.15    0.08    0.05    0.00    0.02    0.01  180.11  212.64    0.33   58.51    0.00  121.60  154.62    0.00    0.00
 2013 344   189    86     3    62.6   62.2    0.4   10.17    8.60    8.18    4.08    1.16    0.70    0.14    0.07    0.05    0.00    0.02    0.01  180.19  212.72    0.33   58.53    0.00  121.67  154.62    0.00    0.00
 2013 345   190    86     3    62.7   62.2    0.4   10.31    8.57    8.18    4.08    1.16    0.70    0.14    0.07    0.05    0.00    0.02    0.01  180.27  212.79    0.33   58.55    0.00  121.73  154.62    0.00    0.00
 2013 346   191    86     3    62.7   62.3    0.4   10.44    8.55    8.17    4.08    1.17    0.70    0.13    0.06    0.05    0.00    0.02    0.01  180.35  212.86    0.33   58.56    0.00  121.79  154.62    0.00    0.00
 2013 347   192    86     3    62.8   62.4    0.4   10.57    8.52    8.17    4.08    1.17    0.71    0.13    0.06    0.05    0.00    0.02    0.01  180.43  212.93    0.33   58.58    0.00  121.85  154.62    0.00    0.00
 2013 348   193    86     3    62.9   62.5    0.4   10.69    8.49    8.17    4.08    1.17    0.71    0.12    0.06    0.05    0.00    0.02    0.01  180.50  213.00    0.33   58.60    0.00  121.90  154.62    0.00    0.00
 2013 349   194    86     3    62.9   62.5    0.4   10.82    8.46    8.17    4.08    1.18    0.71    0.12    0.06    0.05    0.00    0.02    0.01  180.58  213.06    0.33   58.62    0.00  121.96  154.62    0.00    0.00
 2013 350   195    86     3    63.0   62.6    0.4   10.95    8.44    8.17    4.08    1.18    0.71    0.12    0.06    0.05    0.00    0.02    0.01  180.66  213.12    0.33   58.64    0.00  122.02  154.62    0.00    0.00
 2013 351   196    86     3    63.0   62.6    0.4   11.07    8.41    8.17    4.08    1.19    0.71    0.12    0.05    0.05    0.00    0.02    0.01  180.73  213.19    0.33   58.65    0.00  122.08  154.62    0.00    0.00
 2013 352   197    86     3    63.1   62.7    0.4   11.20    8.38    8.16    4.08    1.19    0.71    0.12    0.05    0.05    0.00    0.02    0.01  180.81  213.25    0.33   58.67    0.00  122.13  154.62    0.00    0.00
 2013 353   198    86     3    63.1   62.8    0.4   11.32    8.35    8.16    4.08    1.19    0.71    0.12    0.05    0.05    0.00    0.02    0.01  180.88  213.31    0.33   58.69    0.00  122.19  154.62    0.00    0.00
 2013 354   199    86     3    63.2   62.8    0.4   11.45    8.32    8.16    4.08    1.19    0.71    0.11    0.05    0.05    0.00    0.02    0.01  180.95  213.37    0.33   58.71    0.00  122.25  154.62    0.00    0.00
 2013 355   200    86     3    63.3   62.9    0.4   11.57    8.30    8.16    4.08    1.20    0.71    0.11    0.05    0.05    0.00    0.02    0.01  181.03  213.43    0.33   58.72    0.00  122.30  154.62    0.00    0.00
 2013 356   201    86     3    63.3   62.9    0.4   11.69    8.27    8.16    4.08    1.20    0.71    0.11    0.05    0.05    0.00    0.01    0.01  181.10  213.49    0.33   58.74    0.00  122.36  154.62    0.00    0.00
 2013 357   202    86     3    63.4   63.0    0.4   11.81    8.24    8.16    4.08    1.20    0.72    0.11    0.05    0.05    0.00    0.01    0.01  181.17  213.55    0.33   58.76    0.00  122.41  154.62    0.00    0.00
 2013 358   203    86     3    63.4   63.1    0.4   11.93    8.21    8.15    4.08    1.21    0.72    0.11    0.05    0.05    0.00    0.01    0.01  181.25  213.61    0.33   58.78    0.00  122.47  154.62    0.00    0.00
 2013 359   204    86     3    63.5   63.1    0.4   12.06    8.19    8.15    4.08    1.21    0.72    0.11    0.05    0.05    0.00    0.01    0.01  181.32  213.67    0.33   58.79    0.00  122.52  154.62    0.00    0.00
 2013 360   205    86     3    63.5   63.2    0.4   12.18    8.16    8.15    4.08    1.21    0.72    0.11    0.05    0.05    0.00    0.01    0.01  181.39  213.72    0.33   58.81    0.00  122.58  154.62    0.00    0.00
 2013 361   206    86     3    63.6   63.2    0.3   12.30    8.13    8.15    4.08    1.21    0.72    0.11    0.05    0.05    0.00    0.01    0.01  181.46  213.78    0.33   58.83    0.00  122.63  154.62    0.00    0.00
 2013 362   207    86     3    63.6   63.3    0.3   12.42    8.11    8.15    4.07    1.21    0.72    0.11    0.05    0.05    0.00    0.01    0.01  181.53  213.83    0.33   58.85    0.00  122.68  154.62    0.00    0.00
 2013 363   208    86     3    63.7   63.3    0.3   12.53    8.08    8.15    4.07    1.22    0.72    0.11    0.05    0.05    0.00    0.01    0.01  181.60  213.89    0.33   58.86    0.00  122.73  154.62    0.00    0.00
