
*SOIL N BALANCE - CENTURY ROUTINES

*DSSAT Cropping System Model Ver. 4.7.2.000 -release      OCT 15, 2021; 17:59:33

!                     |------------------- N State Variables -------------------| |------------ N Additions ------------| |--------------- N Subtractions ----------------| |-Mineralization--|
!                                                                                   Harvest   Applied                                   Tile-     N gas     Flood    Miner-    Immob-  Seasonal
!                       Surface      SOM1      SOM2      SOM3    Litter     Inorg   Residue   Residue  Fertiliz   Senesed   Leached   drained    Uptake    Losses    Losses    alized    ilized   Balance
@Run FILEX         TN      SN0D     S1NTD     S2NTD     S3NTD      LNTD      NIAD      HRNH     RESNC      NICM     SNNTC      NLCM      TDFC      NUCM     NGasC      RNRO      NMNC      NIMC   SEASBAL
   1 ITSA1301.SGX INIT     0.00    270.80   3026.59  29095.45      4.50      0.00
   1 ITSA1301.SGX   1      0.00    234.71   2954.88  29088.14      2.66     63.70      0.00      0.00     86.00      5.82      0.00      0.00    154.62      0.64      0.00    181.60     58.86     -0.04
