*SOM N DAILY OUTPUT FILE

*DSSAT Cropping System Model Ver. 4.7.2.000 -release      OCT 15, 2021; 17:59:33
                                                                                
*RUN   1        :             CSM335_date_1 MZCER047 ITSA1301    1              
 MODEL          : MZCER047 - Maize                                              
 EXPERIMENT     : ITSA1301 SG CALIBRATION SETUP OF SORGHUM SOWING DATES         
 DATA PATH      :                                                               
 TREATMENT  1   :             CSM335_date_1 MZCER047                            
  
!                                                                                                                                                                                                                                                                                                                                                                                                                                                Cumul.
!               <---- SOM N in top layers ----> <---------------- Total Soil Organic Nitrogen ----------------> <-------- Active Soil Organic Nitrogen (SOM1) --------> <---- Intermediate Soil Organic N (SOM2) -----> <------- Passive Soil Organic N (SOM3) -------> <----------------- Litter Nitrogen -------------------> <------------- Metabolic Litter Nitrogen -------------> <------------ Structural Litter Nitrogen ------------->  Res. N
!               20cm-kg  20cm-% 40cm-kg  40cm-%   Total Surface    Soil     0-5    5-15   15-30   30-60  60-120 Surface    Soil     0-5    5-15   15-30   30-60  60-120    Soil     0-5    5-15   15-30   30-60  60-120    Soil     0-5    5-15   15-30   30-60  60-120 Surface    Soil     0-5    5-15   15-30   30-60  60-120 Surface    Soil     0-5    5-15   15-30   30-60  60-120 Surface    Soil     0-5    5-15   15-30   30-60  60-120 (kg/ha)
@YEAR DOY   DAS  SNS20D  SN%20D  SNS40D  SN%40D    SOND    SN0D    SNTD    SN1D    SN2D    SN3D    SN4D   SN5+D   S1N0D   S1NTD   S1N1D   S1N2D   S1N3D   S1N4D  S1N5+D   S2NTD   S2N1D   S2N2D   S2N3D   S2N4D  S2N5+D   S3NTD   S3N1D   S3N2D   S3N3D   S3N4D  S3N5+D    LN0D    LNTD    LN1D    LN2D    LN3D    LN4D   LN5+D   MEN0D   MENTD   MEN1D   MEN2D   MEN3D   MEN4D  MEN5+D   STN0D   STNTD   STN1D   STN2D   STN3D   STN4D  STN5+D   RESNC
 2013 155     0    4530   0.160    5109   0.180   32397       0   32397    1133    2266    3400    8530   17069       0     271      42      84     126       6      12    3027     470     941    1412      68     135   29095     620    1239    1860    8456   16921    0.00    4.50    0.56    0.93    1.02    1.17    0.81    0.00    4.11    0.51    0.85    0.94    1.07    0.74    0.00    0.39    0.05    0.08    0.09    0.10    0.07       0
 2013 156     1    4530   0.159    5109   0.180   32397       0   32397    1132    2266    3400    8530   17069       0     271      42      84     126       6      12    3026     470     941    1412      68     135   29095     620    1239    1860    8456   16921    0.00    4.48    0.55    0.93    1.02    1.17    0.81    0.00    4.09    0.50    0.85    0.93    1.06    0.74    0.00    0.39    0.05    0.08    0.09    0.10    0.07       0
 2013 157     2    4529   0.159    5109   0.180   32397       0   32397    1132    2266    3400    8530   17069       0     271      42      84     126       6      12    3026     470     941    1412      68     135   29095     620    1239    1860    8456   16921    0.00    4.44    0.52    0.92    1.02    1.16    0.81    0.00    4.05    0.47    0.84    0.93    1.06    0.74    0.00    0.39    0.05    0.08    0.09    0.10    0.07       0
 2013 158     3    4528   0.159    5109   0.180   32395       0   32395    1132    2265    3399    8530   17069       0     270      42      84     126       6      12    3026     470     941    1412      68     135   29095     620    1239    1860    8456   16921    0.00    4.35    0.50    0.88    1.00    1.16    0.81    0.00    3.96    0.45    0.80    0.91    1.06    0.74    0.00    0.39    0.05    0.08    0.09    0.10    0.07       0
 2013 159     4    4528   0.159    5108   0.180   32394       0   32394    1132    2265    3399    8530   17069       0     270      42      84     126       6      12    3025     470     940    1412      67     135   29095     620    1240    1860    8456   16921    0.00    4.25    0.47    0.84    0.97    1.16    0.81    0.00    3.86    0.42    0.76    0.89    1.06    0.74    0.00    0.39    0.05    0.08    0.09    0.10    0.07       0
 2013 160     5    4527   0.159    5108   0.180   32393       0   32393    1132    2264    3399    8530   17069       0     269      42      84     126       6      12    3024     470     940    1412      67     135   29096     620    1240    1860    8456   16921    0.00    4.16    0.45    0.80    0.95    1.16    0.81    0.00    3.77    0.40    0.72    0.86    1.06    0.73    0.00    0.39    0.05    0.08    0.09    0.10    0.07       0
 2013 161     6    4526   0.159    5108   0.180   32392       0   32392    1132    2263    3398    8530   17069       0     269      42      83     126       6      12    3024     470     940    1411      67     135   29096     620    1240    1860    8456   16921    0.00    4.08    0.43    0.76    0.93    1.16    0.80    0.00    3.69    0.38    0.68    0.84    1.05    0.73    0.00    0.39    0.05    0.08    0.09    0.10    0.07       0
 2013 162     7    4526   0.159    5108   0.180   32391       0   32391    1132    2263    3398    8530   17069       0     269      42      83     126       6      12    3023     470     940    1411      67     135   29096     620    1240    1860    8456   16921    0.00    4.01    0.42    0.73    0.91    1.15    0.80    0.00    3.62    0.37    0.65    0.82    1.05    0.73    0.00    0.39    0.05    0.08    0.09    0.10    0.07       0
 2013 163     8    4525   0.159    5107   0.180   32390       0   32390    1132    2262    3397    8530   17069       0     268      42      83     125       6      12    3022     470     939    1411      67     135   29096     620    1240    1860    8456   16921    0.00    3.94    0.41    0.69    0.89    1.15    0.80    0.00    3.55    0.36    0.61    0.80    1.05    0.73    0.00    0.39    0.05    0.08    0.09    0.10    0.07       0
 2013 164     9    4525   0.159    5107   0.180   32390       0   32390    1132    2262    3397    8530   17069       0     268      42      83     125       6      12    3022     469     939    1411      67     135   29096     620    1240    1860    8456   16921    0.00    3.87    0.39    0.66    0.87    1.15    0.80    0.00    3.48    0.34    0.58    0.78    1.05    0.73    0.00    0.39    0.05    0.08    0.09    0.10    0.07       0
 2013 165    10    4524   0.159    5107   0.180   32389       0   32389    1132    2262    3397    8530   17069       0     268      42      82     125       6      12    3021     469     939    1411      67     135   29096     620    1240    1860    8456   16921    0.00    3.79    0.37    0.63    0.85    1.15    0.80    0.00    3.41    0.32    0.55    0.76    1.05    0.73    0.00    0.39    0.05    0.08    0.09    0.10    0.07       0
 2013 166    11    4524   0.159    5107   0.180   32388       0   32388    1132    2261    3396    8530   17069       0     268      42      82     125       6      12    3021     469     939    1410      67     135   29096     620    1240    1860    8456   16921    0.00    3.73    0.35    0.60    0.83    1.15    0.80    0.00    3.34    0.31    0.52    0.74    1.04    0.73    0.00    0.39    0.05    0.08    0.09    0.10    0.07       0
 2013 167    12    4523   0.159    5106   0.180   32387       0   32387    1132    2261    3396    8530   17069       0     267      42      82     125       6      12    3020     469     938    1410      67     135   29096     620    1240    1860    8456   16921    0.00    3.66    0.34    0.57    0.81    1.14    0.80    0.00    3.27    0.29    0.50    0.72    1.04    0.73    0.00    0.39    0.05    0.08    0.09    0.10    0.07       0
 2013 168    13    4522   0.159    5106   0.180   32386       0   32386    1131    2260    3395    8530   17069       0     267      42      82     124       6      12    3020     469     938    1410      67     135   29096     620    1240    1860    8456   16921    0.00    3.58    0.32    0.55    0.77    1.14    0.79    0.00    3.19    0.27    0.47    0.68    1.04    0.72    0.00    0.39    0.05    0.08    0.09    0.10    0.07       0
 2013 169    14    4522   0.159    5106   0.180   32385       0   32385    1131    2260    3394    8530   17069       0     266      42      82     124       6      12    3019     469     938    1409      67     135   29096     620    1240    1860    8456   16921    0.00    3.50    0.31    0.52    0.73    1.14    0.79    0.00    3.12    0.26    0.45    0.65    1.04    0.72    0.00    0.39    0.05    0.08    0.09    0.10    0.07       0
 2013 170    15    4521   0.159    5105   0.180   32384       0   32384    1131    2260    3394    8530   17069       0     266      42      82     124       6      12    3018     469     938    1409      67     135   29096     620    1240    1860    8456   16921    0.00    3.42    0.29    0.50    0.70    1.14    0.79    0.00    3.04    0.25    0.42    0.61    1.04    0.72    0.00    0.38    0.05    0.08    0.09    0.10    0.07       0
 2013 171    16    4521   0.159    5105   0.180   32383       0   32383    1131    2259    3393    8530   17069       0     266      42      82     124       6      12    3018     469     938    1409      67     135   29096     620    1240    1860    8456   16921    0.00    3.35    0.28    0.48    0.67    1.14    0.79    0.00    2.97    0.23    0.40    0.58    1.04    0.72    0.00    0.38    0.05    0.08    0.09    0.10    0.07       0
 2013 172    17    4520   0.159    5104   0.180   32382       0   32382    1131    2259    3393    8530   17069       0     265      42      81     123       6      12    3017     469     938    1408      67     135   29096     620    1240    1860    8456   16921    0.00    3.28    0.27    0.46    0.64    1.13    0.79    0.00    2.90    0.22    0.38    0.55    1.03    0.72    0.00    0.38    0.05    0.08    0.09    0.10    0.07       0
 2013 173    18    4519   0.159    5104   0.180   32381       0   32381    1131    2259    3392    8530   17069       0     265      42      81     123       6      12    3017     469     937    1408      67     135   29096     620    1240    1860    8456   16921    0.00    3.22    0.26    0.44    0.61    1.13    0.79    0.00    2.83    0.21    0.36    0.52    1.03    0.72    0.00    0.38    0.05    0.08    0.09    0.10    0.07       0
 2013 174    19    4519   0.159    5104   0.180   32380       0   32380    1131    2259    3392    8530   17069       0     264      42      81     123       6      12    3016     469     937    1408      67     135   29096     620    1240    1860    8456   16921    0.00    3.15    0.24    0.42    0.58    1.13    0.79    0.00    2.77    0.20    0.34    0.49    1.03    0.72    0.00    0.38    0.05    0.08    0.09    0.10    0.07       0
 2013 175    20    4518   0.159    5103   0.180   32378       0   32378    1130    2258    3391    8530   17069       0     264      42      81     123       6      12    3015     468     937    1408      67     135   29096     620    1240    1860    8456   16921    0.00    3.09    0.23    0.40    0.55    1.12    0.79    0.00    2.71    0.19    0.32    0.46    1.02    0.71    0.00    0.38    0.05    0.08    0.09    0.10    0.07       0
 2013 176    21    4518   0.159    5103   0.180   32377       0   32377    1130    2258    3390    8530   17069       0     263      42      81     122       6      12    3015     468     937    1407      67     135   29096     620    1240    1860    8456   16921    0.00    3.02    0.22    0.38    0.52    1.11    0.78    0.00    2.64    0.18    0.30    0.44    1.01    0.71    0.00    0.38    0.05    0.08    0.09    0.10    0.07       0
 2013 177    22    4517   0.159    5103   0.180   32376       0   32376    1130    2258    3390    8530   17069       0     263      42      81     122       6      12    3014     468     937    1407      67     135   29096     620    1240    1860    8456   16921    0.00    2.96    0.21    0.36    0.50    1.10    0.78    0.00    2.58    0.17    0.29    0.41    1.00    0.71    0.00    0.38    0.05    0.08    0.08    0.10    0.07       0
 2013 178    23    4516   0.159    5102   0.180   32375       0   32375    1130    2257    3389    8530   17069       0     263      42      81     122       6      12    3014     468     936    1407      67     135   29096     620    1240    1860    8456   16921    0.00    2.90    0.20    0.35    0.47    1.09    0.78    0.00    2.52    0.16    0.27    0.39    0.99    0.71    0.00    0.38    0.05    0.08    0.08    0.10    0.07       0
 2013 179    24    4516   0.159    5102   0.180   32374       0   32374    1130    2257    3389    8530   17069       0     262      42      81     122       6      12    3013     468     936    1406      67     135   29096     620    1240    1861    8455   16921    0.00    2.84    0.19    0.33    0.45    1.08    0.78    0.00    2.46    0.15    0.26    0.37    0.98    0.71    0.00    0.38    0.05    0.08    0.08    0.10    0.07       0
 2013 180    25    4515   0.159    5102   0.180   32373       0   32373    1130    2257    3388    8530   17069       0     262      42      80     121       6      12    3012     468     936    1406      67     135   29096     620    1240    1861    8455   16921    0.00    2.79    0.19    0.32    0.43    1.08    0.78    0.00    2.42    0.14    0.24    0.35    0.98    0.71    0.00    0.38    0.05    0.08    0.08    0.10    0.07       0
 2013 181    26    4514   0.159    5101   0.180   32372       0   32372    1129    2256    3388    8530   17069       0     261      42      80     121       6      12    3012     468     936    1406      67     135   29096     620    1240    1861    8455   16921    0.00    2.75    0.18    0.31    0.41    1.07    0.78    0.00    2.37    0.14    0.23    0.33    0.97    0.71    0.00    0.38    0.05    0.08    0.08    0.10    0.07       0
 2013 182    27    4514   0.159    5101   0.180   32371       0   32371    1129    2256    3387    8530   17069       0     261      42      80     121       6      12    3011     468     936    1405      67     135   29096     620    1240    1861    8455   16921    0.00    2.70    0.17    0.30    0.40    1.06    0.78    0.00    2.33    0.13    0.22    0.31    0.96    0.71    0.00    0.38    0.05    0.08    0.08    0.10    0.07       0
 2013 183    28    4513   0.159    5101   0.180   32370       0   32370    1129    2256    3387    8530   17069       0     261      42      80     121       6      12    3011     468     935    1405      67     135   29096     620    1240    1861    8455   16921    0.00    2.66    0.17    0.28    0.38    1.05    0.77    0.00    2.29    0.12    0.21    0.30    0.95    0.70    0.00    0.38    0.05    0.07    0.08    0.10    0.07       0
 2013 184    29    4513   0.159    5101   0.180   32370       0   32370    1129    2255    3387    8530   17069       0     260      41      80     121       6      12    3010     468     935    1405      67     135   29096     620    1240    1861    8455   16921    0.00    2.61    0.16    0.28    0.37    1.03    0.77    0.00    2.23    0.12    0.20    0.29    0.93    0.70    0.00    0.37    0.04    0.07    0.08    0.10    0.07       0
 2013 185    30    4512   0.159    5100   0.180   32369       0   32369    1129    2255    3386    8530   17068       0     260      41      80     121       6      12    3010     467     935    1405      67     135   29096     620    1240    1861    8455   16921    0.00    2.53    0.16    0.27    0.36    0.98    0.77    0.00    2.16    0.11    0.19    0.27    0.88    0.70    0.00    0.37    0.04    0.07    0.08    0.10    0.07       0
 2013 186    31    4511   0.159    5100   0.180   32368       0   32368    1129    2255    3386    8530   17068       0     260      41      80     120       6      12    3009     467     935    1404      67     135   29096     620    1240    1861    8455   16921    0.00    2.46    0.15    0.26    0.35    0.93    0.77    0.00    2.08    0.11    0.18    0.26    0.83    0.70    0.00    0.37    0.04    0.07    0.08    0.10    0.07       0
 2013 187    32    4511   0.159    5100   0.180   32367       0   32367    1128    2254    3385    8530   17068       0     260      41      79     120       7      12    3008     467     935    1404      67     135   29096     620    1240    1861    8455   16920    0.00    2.38    0.15    0.25    0.33    0.89    0.76    0.00    2.01    0.10    0.18    0.25    0.79    0.69    0.00    0.37    0.04    0.07    0.08    0.10    0.07       0
 2013 188    33    4510   0.159    5099   0.180   32366       0   32366    1128    2254    3385    8530   17068       0     259      41      79     120       7      12    3008     467     934    1404      67     135   29096     620    1240    1861    8455   16920    0.00    2.31    0.14    0.24    0.32    0.85    0.75    0.00    1.94    0.10    0.17    0.24    0.75    0.68    0.00    0.37    0.04    0.07    0.08    0.10    0.07       0
 2013 189    34    4509   0.159    5099   0.180   32364       0   32364    1128    2254    3385    8530   17068       0     259      41      79     120       7      12    3007     467     934    1403      67     135   29096     620    1240    1861    8455   16920    0.00    2.24    0.14    0.24    0.31    0.81    0.74    0.00    1.87    0.09    0.16    0.23    0.71    0.67    0.00    0.37    0.04    0.07    0.08    0.10    0.07       0
 2013 190    35    4509   0.159    5099   0.180   32363       0   32363    1128    2253    3384    8530   17068       0     259      41      79     120       7      12    3007     467     934    1403      67     135   29096     620    1240    1861    8455   16920    0.00    2.17    0.13    0.23    0.30    0.77    0.74    0.00    1.80    0.09    0.15    0.22    0.67    0.67    0.00    0.37    0.04    0.07    0.08    0.10    0.07       0
 2013 191    36    4508   0.159    5099   0.180   32362       0   32362    1128    2253    3384    8530   17068       0     258      41      79     120       7      12    3006     467     934    1403      67     135   29096     620    1240    1861    8455   16920    0.00    2.10    0.13    0.22    0.29    0.73    0.73    0.00    1.73    0.09    0.15    0.21    0.63    0.66    0.00    0.37    0.04    0.07    0.08    0.10    0.07       0
 2013 192    37    4507   0.159    5098   0.180   32361       0   32361    1127    2253    3383    8530   17068       0     258      41      79     119       7      12    3005     467     934    1403      67     135   29096     620    1240    1861    8455   16920    0.00    2.04    0.13    0.21    0.28    0.70    0.72    0.00    1.67    0.08    0.14    0.20    0.60    0.65    0.00    0.37    0.04    0.07    0.08    0.10    0.07       0
 2013 193    38    4507   0.159    5098   0.180   32360       0   32360    1127    2252    3383    8529   17068       0     258      40      78     119       7      12    3005     467     933    1402      67     135   29096     620    1240    1861    8454   16920    0.00    1.98    0.12    0.21    0.27    0.66    0.71    0.00    1.61    0.08    0.14    0.19    0.57    0.64    0.00    0.37    0.04    0.07    0.08    0.10    0.07       0
 2013 194    39    4506   0.159    5098   0.179   32359       0   32359    1127    2252    3382    8529   17068       0     257      40      78     119       7      12    3004     467     933    1402      67     135   29096     620    1240    1861    8454   16920    0.00    1.92    0.12    0.20    0.26    0.63    0.70    0.00    1.56    0.08    0.13    0.18    0.54    0.63    0.00    0.37    0.04    0.07    0.08    0.10    0.07       0
 2013 195    40    4505   0.159    5097   0.179   32358       0   32358    1127    2252    3382    8529   17068       0     257      40      78     119       7      12    3003     467     933    1402      67     135   29096     620    1240    1861    8454   16920    0.00    1.87    0.12    0.20    0.25    0.61    0.69    0.00    1.51    0.08    0.13    0.17    0.51    0.62    0.00    0.37    0.04    0.07    0.08    0.10    0.07       0
 2013 196    41    4505   0.159    5097   0.179   32357       0   32357    1127    2251    3381    8529   17068       0     257      40      78     119       7      12    3003     466     933    1401      67     135   29096     620    1240    1861    8454   16920    0.00    1.82    0.12    0.19    0.25    0.58    0.69    0.00    1.46    0.07    0.12    0.17    0.48    0.62    0.00    0.37    0.04    0.07    0.08    0.10    0.07       0
 2013 197    42    4504   0.159    5097   0.179   32356       0   32356    1127    2251    3381    8529   17068       0     256      40      78     119       7      12    3002     466     933    1401      67     135   29095     620    1240    1861    8454   16920    0.00    1.78    0.12    0.19    0.24    0.55    0.68    0.00    1.42    0.07    0.12    0.16    0.46    0.61    0.00    0.37    0.04    0.07    0.08    0.10    0.07       0
 2013 198    43    4504   0.159    5096   0.179   32355       0   32355    1127    2251    3381    8529   17068       0     256      40      78     119       7      12    3002     466     932    1401      67     135   29095     620    1240    1861    8454   16920    0.00    1.74    0.12    0.19    0.24    0.53    0.67    0.00    1.38    0.07    0.11    0.16    0.43    0.60    0.00    0.36    0.04    0.07    0.08    0.10    0.07       0
 2013 199    44    4503   0.159    5096   0.179   32354       0   32354    1127    2250    3380    8529   17068       0     256      40      78     118       7      12    3001     466     932    1400      67     135   29095     620    1240    1861    8454   16920    0.00    1.71    0.12    0.18    0.23    0.51    0.66    0.00    1.34    0.07    0.11    0.15    0.41    0.59    0.00    0.36    0.04    0.07    0.08    0.10    0.07       0
 2013 200    45    4503   0.159    5096   0.179   32353       0   32353    1127    2250    3380    8529   17068       0     256      40      77     118       7      12    3001     466     932    1400      67     135   29095     620    1240    1861    8454   16920    0.00    1.68    0.12    0.18    0.23    0.49    0.66    0.00    1.31    0.07    0.11    0.15    0.39    0.59    0.00    0.36    0.04    0.07    0.08    0.10    0.07       0
 2013 201    46    4502   0.159    5096   0.179   32352       0   32352    1126    2250    3379    8529   17068       0     255      40      77     118       8      12    3000     466     932    1400      67     135   29095     620    1240    1861    8454   16920    0.00    1.65    0.12    0.18    0.22    0.47    0.65    0.00    1.28    0.07    0.11    0.14    0.38    0.58    0.00    0.36    0.04    0.07    0.08    0.10    0.07       0
 2013 202    47    4502   0.159    5095   0.179   32351       0   32351    1126    2249    3379    8529   17068       0     255      40      77     118       8      12    3000     466     932    1400      67     135   29095     620    1240    1861    8453   16920    0.00    1.62    0.11    0.18    0.22    0.46    0.64    0.00    1.25    0.07    0.10    0.14    0.36    0.57    0.00    0.36    0.04    0.07    0.08    0.10    0.07       0
 2013 203    48    4501   0.158    5095   0.179   32350       0   32350    1126    2249    3379    8529   17068       0     255      40      77     118       8      12    2999     466     931    1399      67     135   29095     620    1240    1861    8453   16920    0.00    1.59    0.11    0.18    0.22    0.44    0.64    0.00    1.23    0.07    0.10    0.14    0.35    0.57    0.00    0.36    0.04    0.07    0.08    0.10    0.07       0
 2013 204    49    4500   0.158    5095   0.179   32349       0   32349    1126    2249    3378    8529   17068       0     254      40      77     118       8      12    2998     466     931    1399      67     135   29095     620    1240    1861    8453   16920    0.00    1.57    0.11    0.17    0.22    0.43    0.63    0.00    1.20    0.07    0.10    0.14    0.33    0.56    0.00    0.36    0.04    0.07    0.08    0.10    0.07       0
 2013 205    50    4500   0.158    5095   0.179   32348       0   32348    1126    2248    3378    8528   17068       0     254      40      77     118       8      12    2998     466     931    1399      67     135   29095     620    1240    1861    8453   16920    0.00    1.55    0.11    0.17    0.22    0.42    0.63    0.00    1.18    0.07    0.10    0.14    0.32    0.56    0.00    0.36    0.04    0.07    0.08    0.10    0.07       0
 2013 206    51    4499   0.158    5094   0.179   32348       0   32348    1126    2248    3378    8528   17068       0     254      40      77     118       8      12    2997     466     931    1399      67     135   29095     620    1240    1861    8453   16920    0.00    1.53    0.11    0.17    0.22    0.41    0.62    0.00    1.17    0.07    0.10    0.14    0.31    0.55    0.00    0.36    0.04    0.07    0.08    0.10    0.07       0
 2013 207    52    4499   0.158    5094   0.179   32347       0   32347    1126    2248    3377    8528   17068       0     254      40      77     117       8      12    2997     466     931    1398      67     135   29095     620    1240    1861    8453   16920    0.00    1.52    0.11    0.17    0.22    0.40    0.62    0.00    1.15    0.07    0.10    0.14    0.30    0.55    0.00    0.36    0.04    0.07    0.08    0.10    0.07       0
 2013 208    53    4499   0.158    5094   0.179   32346       0   32346    1126    2248    3377    8528   17068       0     254      40      76     117       8      12    2996     466     931    1398      67     135   29094     620    1241    1861    8453   16920    0.00    1.51    0.11    0.17    0.22    0.39    0.61    0.00    1.14    0.07    0.10    0.14    0.30    0.54    0.00    0.36    0.04    0.07    0.08    0.10    0.07       0
 2013 209    54    4498   0.158    5094   0.179   32345       0   32345    1126    2247    3377    8528   17068       0     254      40      76     117       8      12    2996     466     930    1398      67     135   29094     620    1241    1861    8453   16920    0.00    1.50    0.11    0.17    0.22    0.39    0.61    0.00    1.13    0.07    0.10    0.14    0.29    0.54    0.00    0.36    0.04    0.07    0.08    0.10    0.07       0
 2013 210    55    4498   0.158    5093   0.179   32345       0   32345    1126    2247    3376    8528   17067       0     253      40      76     117       8      12    2996     466     930    1398      67     135   29094     620    1241    1861    8453   16920    0.00    1.49    0.11    0.17    0.23    0.38    0.60    0.00    1.13    0.07    0.10    0.14    0.28    0.53    0.00    0.37    0.04    0.07    0.08    0.10    0.07       0
 2013 211    56    4498   0.158    5093   0.179   32344       0   32344    1126    2247    3376    8528   17067       0     253      40      76     117       8      12    2995     466     930    1397      67     135   29094     620    1241    1861    8453   16920    0.00    1.49    0.12    0.18    0.23    0.38    0.60    0.00    1.12    0.07    0.10    0.15    0.28    0.53    0.00    0.37    0.04    0.07    0.08    0.10    0.07       0
 2013 212    57    4497   0.158    5093   0.179   32344       0   32344    1126    2247    3376    8528   17067       0     253      40      76     117       8      12    2995     466     930    1397      67     135   29094     620    1241    1861    8452   16920    0.00    1.49    0.12    0.18    0.23    0.37    0.59    0.00    1.12    0.07    0.11    0.15    0.27    0.52    0.00    0.37    0.04    0.07    0.08    0.10    0.07       0
 2013 213    58    4497   0.158    5093   0.179   32343       0   32343    1126    2247    3376    8528   17067       0     253      40      76     117       8      12    2994     466     930    1397      67     135   29094     620    1241    1862    8452   16919    0.00    1.49    0.12    0.18    0.24    0.37    0.59    0.00    1.13    0.07    0.11    0.15    0.27    0.52    0.00    0.37    0.04    0.07    0.08    0.10    0.07       0
 2013 214    59    4497   0.158    5093   0.179   32342       0   32342    1126    2246    3375    8528   17067       0     253      40      76     117       8      12    2994     466     930    1397      67     135   29094     620    1241    1862    8452   16919    0.00    1.50    0.12    0.18    0.24    0.37    0.58    0.00    1.13    0.08    0.11    0.16    0.27    0.51    0.00    0.37    0.04    0.07    0.08    0.10    0.07       0
 2013 215    60    4496   0.158    5092   0.179   32342       0   32342    1126    2246    3375    8528   17067       0     253      40      76     117       8      12    2994     466     930    1397      67     135   29094     620    1241    1862    8452   16919    0.00    1.51    0.12    0.19    0.25    0.37    0.58    0.00    1.13    0.08    0.11    0.16    0.27    0.51    0.00    0.37    0.04    0.07    0.08    0.10    0.07       0
 2013 216    61    4496   0.158    5092   0.179   32341       0   32341    1126    2246    3375    8528   17067       0     253      40      76     117       8      12    2994     466     930    1397      67     135   29094     620    1241    1862    8452   16919    0.00    1.51    0.13    0.19    0.25    0.37    0.58    0.00    1.14    0.08    0.12    0.17    0.27    0.51    0.00    0.37    0.04    0.07    0.08    0.10    0.07       0
 2013 217    62    4496   0.158    5092   0.179   32341       0   32341    1126    2246    3375    8528   17067       0     252      40      76     117       8      12    2993     466     929    1396      67     135   29094     620    1241    1862    8452   16919    0.00    1.52    0.13    0.20    0.26    0.37    0.57    0.00    1.15    0.08    0.12    0.17    0.27    0.50    0.00    0.37    0.04    0.07    0.08    0.10    0.07       0
 2013 218    63    4496   0.158    5092   0.179   32340       0   32340    1126    2246    3375    8528   17067       0     252      40      76     116       8      13    2993     466     929    1396      67     135   29094     620    1241    1862    8452   16919    0.00    1.54    0.13    0.20    0.26    0.37    0.57    0.00    1.16    0.08    0.13    0.18    0.27    0.50    0.00    0.37    0.05    0.07    0.08    0.10    0.07       0
 2013 219    64    4496   0.158    5092   0.179   32340       0   32340    1126    2246    3374    8527   17067       0     252      40      76     116       8      13    2993     466     929    1396      67     135   29093     620    1241    1862    8452   16919    0.00    1.55    0.13    0.21    0.27    0.38    0.57    0.00    1.18    0.09    0.13    0.19    0.27    0.50    0.00    0.38    0.05    0.07    0.09    0.10    0.07       0
 2013 220    65    4495   0.158    5092   0.179   32340       0   32340    1126    2245    3374    8527   17067       0     252      40      75     116       8      13    2993     466     929    1396      67     135   29093     620    1241    1862    8452   16919    0.00    1.57    0.13    0.21    0.28    0.38    0.56    0.00    1.19    0.09    0.14    0.19    0.28    0.49    0.00    0.38    0.05    0.08    0.09    0.10    0.07       0
 2013 221    66    4495   0.158    5091   0.179   32339       0   32339    1126    2245    3374    8527   17067       0     252      40      75     116       8      13    2992     466     929    1396      67     135   29093     620    1241    1862    8452   16919    0.00    1.59    0.13    0.22    0.29    0.39    0.56    0.00    1.21    0.09    0.14    0.20    0.28    0.49    0.00    0.38    0.05    0.08    0.09    0.10    0.07       0
 2013 222    67    4495   0.158    5091   0.179   32339       0   32339    1126    2245    3374    8527   17067       0     252      40      75     116       8      13    2992     466     929    1396      67     135   29093     620    1241    1862    8452   16919    0.00    1.61    0.13    0.23    0.30    0.39    0.56    0.00    1.23    0.09    0.15    0.21    0.29    0.49    0.00    0.38    0.05    0.08    0.09    0.10    0.07       0
 2013 223    68    4495   0.158    5091   0.179   32338       0   32338    1125    2245    3374    8527   17067       0     252      40      75     116       8      13    2992     465     929    1396      67     135   29093     620    1241    1862    8452   16919    0.00    1.63    0.13    0.23    0.31    0.40    0.56    0.00    1.25    0.09    0.16    0.22    0.30    0.49    0.00    0.38    0.05    0.08    0.09    0.10    0.07       0
 2013 224    69    4494   0.158    5091   0.179   32338       0   32338    1125    2245    3373    8527   17067       0     252      40      75     116       8      13    2991     465     929    1395      67     135   29093     620    1241    1862    8452   16919    0.00    1.65    0.13    0.24    0.32    0.41    0.56    0.00    1.26    0.08    0.16    0.23    0.30    0.48    0.00    0.39    0.05    0.08    0.09    0.10    0.07       0
 2013 225    70    4494   0.158    5091   0.179   32337       0   32337    1125    2245    3373    8527   17067       0     252      40      75     116       8      13    2991     465     929    1395      67     135   29093     620    1241    1862    8452   16919    0.00    1.66    0.13    0.24    0.33    0.42    0.55    0.00    1.28    0.08    0.16    0.24    0.31    0.48    0.00    0.39    0.05    0.08    0.09    0.10    0.07       0
 2013 226    71    4494   0.158    5091   0.179   32337       0   32337    1125    2245    3373    8527   17067       0     251      40      75     116       8      13    2991     465     929    1395      67     135   29093     620    1241    1862    8452   16919    0.00    1.68    0.12    0.25    0.34    0.42    0.55    0.00    1.29    0.08    0.17    0.25    0.32    0.48    0.00    0.39    0.05    0.08    0.09    0.11    0.07       0
 2013 227    72    4493   0.158    5091   0.179   32336       0   32336    1125    2245    3373    8527   17067       0     251      40      75     116       8      13    2990     465     928    1395      67     135   29093     620    1241    1862    8452   16919    0.00    1.70    0.12    0.25    0.35    0.43    0.55    0.00    1.31    0.08    0.17    0.26    0.33    0.48    0.00    0.39    0.05    0.08    0.09    0.11    0.07       0
 2013 228    73    4493   0.158    5091   0.179   32336       0   32336    1125    2244    3373    8527   17067       0     251      40      75     116       8      13    2990     465     928    1395      67     135   29093     620    1241    1862    8451   16919    0.00    1.72    0.12    0.26    0.36    0.44    0.55    0.00    1.33    0.08    0.18    0.27    0.33    0.48    0.00    0.39    0.05    0.08    0.09    0.11    0.07       0
 2013 229    74    4493   0.158    5090   0.179   32336       0   32336    1125    2244    3373    8527   17067       0     251      40      75     116       8      13    2990     465     928    1395      67     135   29093     620    1241    1862    8451   16919    0.00    1.75    0.12    0.26    0.37    0.45    0.55    0.00    1.35    0.08    0.19    0.28    0.34    0.47    0.00    0.40    0.05    0.08    0.09    0.11    0.07       0
 2013 230    75    4493   0.158    5090   0.179   32335       0   32335    1125    2244    3373    8527   17067       0     251      40      75     116       8      13    2990     465     928    1395      67     135   29093     620    1241    1862    8451   16919    0.00    1.78    0.12    0.27    0.38    0.46    0.54    0.00    1.38    0.08    0.19    0.29    0.35    0.47    0.00    0.40    0.05    0.08    0.09    0.11    0.07       0
 2013 231    76    4492   0.158    5090   0.179   32335       0   32335    1125    2244    3373    8527   17067       0     251      40      75     116       8      13    2989     465     928    1395      67     135   29093     620    1241    1862    8451   16919    0.00    1.81    0.12    0.28    0.39    0.47    0.54    0.00    1.41    0.08    0.20    0.30    0.36    0.47    0.00    0.40    0.05    0.08    0.09    0.11    0.07       0
 2013 232    77    4492   0.158    5090   0.179   32335       0   32335    1124    2244    3373    8527   17067       0     251      40      75     116       8      13    2989     465     928    1395      67     135   29093     620    1241    1862    8451   16919    0.00    1.85    0.12    0.29    0.41    0.48    0.54    0.00    1.44    0.08    0.21    0.31    0.37    0.47    0.00    0.40    0.05    0.08    0.09    0.11    0.07       0
 2013 233    78    4492   0.158    5090   0.179   32335       0   32335    1124    2244    3372    8527   17067       0     251      40      75     116       8      13    2989     465     928    1395      67     135   29093     620    1241    1862    8451   16919    0.00    1.89    0.12    0.30    0.42    0.50    0.54    0.00    1.48    0.08    0.22    0.33    0.39    0.47    0.00    0.41    0.05    0.08    0.10    0.11    0.07       0
 2013 234    79    4492   0.158    5090   0.179   32334       0   32334    1124    2244    3372    8527   17067       0     251      40      75     115       8      13    2989     465     928    1395      67     135   29093     620    1241    1862    8451   16919    0.00    1.93    0.12    0.31    0.44    0.51    0.54    0.00    1.52    0.08    0.23    0.34    0.40    0.47    0.00    0.41    0.05    0.08    0.10    0.11    0.07       0
 2013 235    80    4492   0.158    5090   0.179   32334       0   32334    1124    2244    3372    8527   17066       0     251      39      75     115       8      13    2989     464     928    1395      67     135   29093     620    1241    1862    8451   16919    0.00    1.97    0.12    0.32    0.46    0.53    0.54    0.00    1.56    0.08    0.24    0.36    0.42    0.47    0.00    0.41    0.05    0.08    0.10    0.11    0.07       0
 2013 236    81    4491   0.158    5090   0.179   32334       0   32334    1124    2244    3372    8527   17066       0     250      39      75     115       8      13    2988     464     928    1395      67     135   29093     620    1241    1862    8451   16919    0.00    2.01    0.13    0.32    0.47    0.55    0.54    0.00    1.60    0.08    0.24    0.38    0.43    0.47    0.00    0.41    0.05    0.08    0.10    0.11    0.07       0
 2013 237    82    4491   0.158    5090   0.179   32333       0   32333    1124    2244    3372    8527   17066       0     250      39      75     115       8      13    2988     464     928    1395      67     135   29093     620    1241    1862    8451   16919    0.00    2.06    0.13    0.33    0.49    0.57    0.54    0.00    1.64    0.08    0.25    0.39    0.45    0.47    0.00    0.42    0.05    0.08    0.10    0.12    0.07       0
 2013 238    83    4491   0.158    5090   0.179   32333       0   32333    1124    2243    3372    8527   17066       0     250      39      75     115       8      13    2988     464     928    1395      67     135   29093     620    1241    1862    8451   16919    0.00    2.10    0.13    0.33    0.50    0.59    0.54    0.00    1.68    0.09    0.25    0.40    0.47    0.47    0.00    0.42    0.05    0.08    0.10    0.12    0.07       0
 2013 239    84    4490   0.158    5090   0.179   32332       0   32332    1123    2243    3372    8527   17066       0     250      39      75     115       8      13    2987     464     927    1394      67     135   29093     620    1241    1862    8451   16919    0.00    2.14    0.13    0.34    0.51    0.61    0.54    0.00    1.71    0.09    0.25    0.41    0.49    0.47    0.00    0.42    0.05    0.08    0.10    0.12    0.07       0
 2013 240    85    4490   0.158    5090   0.179   32331       0   32331    1123    2243    3372    8527   17066       0     250      39      75     115       8      13    2987     464     927    1394      67     135   29093     620    1241    1862    8451   16919    0.00    2.18    0.14    0.34    0.53    0.64    0.54    0.00    1.75    0.09    0.25    0.42    0.52    0.47    0.00    0.43    0.05    0.09    0.10    0.12    0.07       0
 2013 241    86    4489   0.158    5090   0.179   32331       0   32331    1123    2243    3372    8527   17066       0     250      39      75     115       8      13    2987     464     927    1394      67     135   29092     620    1241    1862    8451   16918    0.00    2.22    0.14    0.34    0.54    0.66    0.54    0.00    1.79    0.09    0.26    0.44    0.54    0.47    0.00    0.43    0.05    0.09    0.10    0.12    0.07       0
 2013 242    87    4489   0.158    5089   0.179   32330       0   32330    1123    2243    3371    8527   17066       0     249      39      74     115       8      13    2986     464     927    1394      67     135   29092     620    1241    1862    8451   16918    0.00    2.26    0.14    0.34    0.55    0.68    0.54    0.00    1.83    0.10    0.26    0.44    0.56    0.47    0.00    0.44    0.05    0.09    0.10    0.12    0.07       0
 2013 243    88    4488   0.158    5089   0.179   32330       0   32330    1123    2242    3371    8527   17066       0     249      39      74     115       8      13    2986     464     927    1394      67     135   29092     620    1241    1862    8451   16918    0.00    2.31    0.15    0.35    0.56    0.71    0.54    0.00    1.87    0.10    0.26    0.45    0.59    0.47    0.00    0.44    0.05    0.09    0.11    0.12    0.07       0
 2013 244    89    4488   0.158    5089   0.179   32329       0   32329    1123    2242    3371    8527   17066       0     249      39      74     115       8      13    2985     464     926    1394      67     135   29092     620    1241    1862    8451   16918    0.00    2.35    0.15    0.35    0.57    0.74    0.54    0.00    1.90    0.10    0.26    0.46    0.61    0.47    0.00    0.44    0.05    0.09    0.11    0.13    0.07       0
 2013 245    90    4487   0.158    5089   0.179   32328       0   32328    1123    2242    3371    8527   17066       0     249      39      74     115       8      13    2985     464     926    1393      67     135   29092     620    1241    1862    8451   16918    0.00    2.39    0.15    0.35    0.57    0.77    0.54    0.00    1.94    0.10    0.26    0.47    0.64    0.47    0.00    0.45    0.05    0.09    0.11    0.13    0.07       0
 2013 246    91    4487   0.158    5089   0.179   32328       0   32328    1122    2242    3370    8527   17066       0     248      39      74     115       8      13    2984     463     926    1393      67     135   29092     620    1241    1862    8451   16918    0.00    2.44    0.16    0.36    0.58    0.80    0.54    0.00    1.98    0.11    0.27    0.47    0.67    0.47    0.00    0.45    0.05    0.09    0.11    0.13    0.07       0
 2013 247    92    4486   0.158    5088   0.179   32327       0   32327    1122    2241    3370    8527   17066       0     248      38      74     115       8      13    2984     463     926    1393      67     135   29092     620    1241    1862    8451   16918    0.00    2.47    0.16    0.36    0.58    0.83    0.55    0.00    2.02    0.11    0.27    0.47    0.70    0.47    0.00    0.46    0.05    0.09    0.11    0.13    0.07       0
 2013 248    93    4486   0.158    5088   0.179   32326       0   32326    1122    2241    3370    8527   17066       0     248      38      74     115       8      13    2983     463     926    1393      67     135   29092     620    1241    1862    8451   16918    0.00    2.51    0.16    0.36    0.58    0.85    0.55    0.00    2.05    0.11    0.27    0.47    0.72    0.47    0.00    0.46    0.05    0.09    0.11    0.13    0.08       0
 2013 249    94    4485   0.158    5088   0.179   32325       0   32325    1122    2241    3369    8527   17066       0     248      38      74     114       8      13    2983     463     926    1392      67     135   29092     620    1241    1862    8451   16918    0.00    2.55    0.17    0.37    0.59    0.88    0.55    0.00    2.09    0.12    0.28    0.48    0.74    0.47    0.00    0.46    0.05    0.09    0.11    0.14    0.08       0
 2013 250    95    4484   0.158    5088   0.179   32324       0   32324    1122    2240    3369    8527   17066       0     247      38      74     114       8      13    2982     463     925    1392      67     135   29092     620    1241    1862    8451   16918    0.00    2.58    0.17    0.37    0.59    0.89    0.55    0.00    2.11    0.12    0.28    0.48    0.76    0.48    0.00    0.47    0.05    0.09    0.11    0.14    0.08       0
 2013 251    96    4484   0.158    5087   0.179   32323       0   32323    1121    2240    3369    8527   17066       0     247      38      74     114       8      13    2981     463     925    1392      67     135   29092     620    1241    1862    8451   16918    0.00    2.61    0.17    0.38    0.59    0.91    0.55    0.00    2.13    0.12    0.29    0.48    0.77    0.48    0.00    0.47    0.05    0.09    0.11    0.14    0.08       0
 2013 252    97    4483   0.158    5087   0.179   32323       0   32323    1121    2240    3368    8527   17066       0     247      38      73     114       8      13    2981     463     925    1391      67     135   29092     620    1241    1862    8451   16918    0.00    2.64    0.18    0.38    0.59    0.93    0.56    0.00    2.17    0.13    0.29    0.48    0.79    0.48    0.00    0.48    0.05    0.09    0.12    0.14    0.08       0
 2013 253    98    4483   0.158    5087   0.179   32322       0   32322    1121    2240    3368    8527   17066       0     247      38      73     114       8      13    2980     463     925    1391      67     135   29092     620    1241    1862    8451   16918    0.00    2.68    0.18    0.39    0.60    0.96    0.56    0.00    2.20    0.13    0.29    0.48    0.81    0.48    0.00    0.48    0.05    0.09    0.12    0.15    0.08       0
 2013 254    99    4482   0.158    5087   0.179   32321       0   32321    1121    2239    3368    8527   17066       0     246      38      73     114       8      13    2980     463     925    1391      67     135   29092     620    1241    1862    8451   16918    0.00    2.72    0.18    0.39    0.60    0.97    0.56    0.00    2.23    0.13    0.30    0.49    0.83    0.48    0.00    0.49    0.05    0.09    0.12    0.15    0.08       0
 2013 255   100    4481   0.158    5086   0.179   32320       0   32320    1121    2239    3367    8527   17066       0     246      38      73     114       9      13    2979     462     924    1391      67     135   29092     620    1241    1862    8450   16918    0.00    2.74    0.19    0.40    0.61    0.98    0.56    0.00    2.24    0.14    0.30    0.49    0.83    0.48    0.00    0.49    0.05    0.10    0.12    0.15    0.08       0
 2013 256   101    4481   0.158    5086   0.179   32319       0   32319    1121    2239    3367    8527   17066       0     246      38      73     114       9      13    2978     462     924    1390      67     135   29092     620    1241    1862    8450   16918    0.00    2.64    0.18    0.38    0.58    0.94    0.56    0.00    2.15    0.13    0.29    0.47    0.79    0.48    0.00    0.49    0.05    0.09    0.12    0.15    0.08       0
 2013 257   102    4480   0.158    5086   0.179   32318       0   32318    1120    2238    3366    8527   17066       0     245      38      73     114       9      13    2978     462     924    1390      67     135   29092     620    1241    1862    8450   16918    0.00    2.55    0.18    0.37    0.56    0.90    0.55    0.00    2.06    0.12    0.28    0.44    0.75    0.47    0.00    0.49    0.05    0.09    0.12    0.15    0.08       0
 2013 258   103    4479   0.158    5086   0.179   32317       0   32317    1120    2238    3366    8527   17066       0     245      38      73     113       9      13    2977     462     924    1390      67     135   29092     620    1241    1862    8450   16918    0.00    2.46    0.17    0.36    0.54    0.86    0.55    0.00    1.98    0.12    0.26    0.42    0.71    0.47    0.00    0.49    0.05    0.09    0.12    0.15    0.08       0
 2013 259   104    4479   0.158    5085   0.179   32315       0   32315    1120    2238    3365    8527   17066       0     245      37      73     113       9      13    2977     462     924    1389      67     135   29092     620    1241    1862    8450   16918    0.00    2.38    0.16    0.34    0.52    0.82    0.54    0.00    1.89    0.11    0.25    0.40    0.67    0.46    0.00    0.49    0.05    0.09    0.12    0.15    0.08       0
 2013 260   105    4478   0.158    5085   0.179   32314       0   32314    1120    2237    3365    8527   17066       0     244      37      72     113       9      13    2976     462     923    1389      67     135   29092     620    1241    1862    8450   16918    0.00    2.30    0.16    0.33    0.49    0.78    0.53    0.00    1.81    0.11    0.24    0.38    0.64    0.46    0.00    0.49    0.05    0.09    0.12    0.15    0.08       0
 2013 261   106    4477   0.158    5085   0.179   32313       0   32313    1120    2237    3365    8527   17066       0     244      37      72     113       9      13    2975     462     923    1389      67     135   29092     620    1241    1862    8450   16918    0.00    2.23    0.15    0.32    0.48    0.75    0.53    0.00    1.74    0.10    0.23    0.36    0.60    0.45    0.00    0.49    0.05    0.09    0.12    0.15    0.08       0
 2013 262   107    4477   0.158    5084   0.179   32312       0   32312    1119    2237    3364    8526   17066       0     244      37      72     113       9      13    2975     462     923    1389      67     134   29092     620    1241    1862    8450   16918    0.00    2.16    0.15    0.31    0.46    0.72    0.52    0.00    1.67    0.10    0.21    0.34    0.58    0.45    0.00    0.48    0.05    0.09    0.12    0.15    0.08       0
 2013 263   108    4476   0.158    5084   0.179   32311       0   32311    1119    2236    3364    8526   17066       0     244      37      72     113       9      13    2974     462     923    1388      67     134   29091     620    1241    1862    8450   16918    0.00    2.09    0.14    0.30    0.44    0.69    0.52    0.00    1.61    0.09    0.20    0.32    0.55    0.44    0.00    0.48    0.05    0.09    0.12    0.15    0.08       0
 2013 264   109    4475   0.158    5084   0.179   32310       0   32310    1119    2236    3363    8526   17065       0     243      37      72     113       9      13    2973     461     923    1388      67     134   29091     620    1241    1862    8450   16918    0.00    2.03    0.14    0.29    0.42    0.67    0.51    0.00    1.55    0.09    0.19    0.31    0.52    0.44    0.00    0.48    0.05    0.09    0.12    0.15    0.08       0
 2013 265   110    4475   0.158    5083   0.179   32309       0   32309    1119    2236    3363    8526   17065       0     243      37      72     112       9      13    2973     461     922    1388      67     134   29091     620    1241    1862    8450   16918    0.00    1.97    0.13    0.28    0.41    0.65    0.51    0.00    1.49    0.08    0.18    0.29    0.50    0.43    0.00    0.48    0.05    0.09    0.11    0.15    0.08       0
 2013 266   111    4474   0.158    5083   0.179   32308       0   32308    1119    2235    3362    8526   17065       0     243      37      72     112       9      13    2972     461     922    1387      67     134   29091     620    1241    1862    8449   16918    0.00    1.91    0.13    0.27    0.39    0.63    0.50    0.00    1.44    0.08    0.17    0.28    0.48    0.42    0.00    0.48    0.05    0.09    0.11    0.15    0.08       0
 2013 267   112    4474   0.158    5083   0.179   32307       0   32307    1118    2235    3362    8526   17065       0     242      37      71     112       9      13    2972     461     922    1387      67     134   29091     620    1241    1862    8449   16918    0.00    1.86    0.13    0.26    0.38    0.61    0.50    0.00    1.39    0.08    0.17    0.26    0.46    0.42    0.00    0.48    0.05    0.09    0.11    0.14    0.08       0
 2013 268   113    4473   0.158    5083   0.179   32306       0   32306    1118    2235    3362    8526   17065       0     242      37      71     112       9      13    2971     461     922    1387      67     134   29091     620    1241    1863    8449   16918    0.00    1.82    0.12    0.25    0.37    0.59    0.49    0.00    1.34    0.07    0.16    0.25    0.44    0.41    0.00    0.48    0.05    0.09    0.11    0.14    0.08       0
 2013 269   114    4473   0.157    5082   0.179   32305       0   32305    1118    2234    3361    8526   17065       0     242      37      71     112       9      13    2971     461     922    1386      67     134   29091     620    1241    1863    8449   16917    0.00    1.78    0.12    0.24    0.36    0.57    0.49    0.00    1.31    0.07    0.15    0.24    0.43    0.41    0.00    0.47    0.05    0.09    0.11    0.14    0.08       0
 2013 270   115    4472   0.157    5082   0.179   32304       0   32304    1118    2234    3361    8526   17065       0     242      37      71     112       9      13    2970     461     922    1386      67     134   29091     620    1241    1863    8449   16917    0.00    1.74    0.12    0.24    0.35    0.56    0.48    0.00    1.27    0.07    0.15    0.23    0.42    0.40    0.00    0.47    0.05    0.09    0.11    0.14    0.08       0
 2013 271   116    4472   0.157    5082   0.179   32304       0   32304    1118    2234    3361    8526   17065       0     241      37      71     112       9      13    2970     461     921    1386      67     134   29091     620    1241    1863    8449   16917    0.00    1.71    0.12    0.23    0.34    0.55    0.48    0.00    1.24    0.07    0.14    0.22    0.40    0.40    0.00    0.47    0.05    0.09    0.11    0.14    0.08       0
 2013 272   117    4471   0.157    5082   0.179   32303       0   32303    1118    2234    3360    8526   17065       0     241      36      71     112       9      13    2969     461     921    1386      67     134   29091     620    1241    1863    8449   16917    0.00    1.68    0.11    0.23    0.33    0.54    0.47    0.00    1.21    0.07    0.14    0.22    0.39    0.40    0.00    0.47    0.05    0.09    0.11    0.14    0.08       0
 2013 273   118    4471   0.157    5082   0.179   32303       0   32303    1118    2234    3360    8526   17065       0     241      36      71     112       9      13    2969     461     921    1386      67     134   29091     620    1241    1863    8449   16917    0.00    1.66    0.11    0.23    0.32    0.53    0.47    0.00    1.18    0.06    0.14    0.21    0.38    0.39    0.00    0.47    0.05    0.09    0.11    0.14    0.08       0
 2013 274   119    4471   0.157    5082   0.179   32302       0   32302    1118    2234    3360    8526   17065       0     241      36      71     112       9      13    2969     461     921    1386      67     134   29091     620    1241    1863    8449   16917    0.00    1.74    0.12    0.24    0.34    0.57    0.47    0.00    1.26    0.07    0.15    0.23    0.42    0.39    0.00    0.48    0.05    0.09    0.11    0.15    0.08       0
 2013 275   120    4470   0.157    5081   0.179   32301       0   32301    1117    2233    3360    8526   17065       0     241      36      71     111       9      13    2968     461     921    1385      67     134   29091     620    1241    1863    8449   16917    0.00    1.82    0.12    0.25    0.37    0.61    0.47    0.00    1.34    0.07    0.16    0.25    0.46    0.39    0.00    0.48    0.05    0.09    0.12    0.15    0.08       0
 2013 276   121    4470   0.157    5081   0.179   32301       0   32301    1117    2233    3360    8526   17065       0     241      36      71     111       9      13    2968     460     921    1385      67     134   29091     620    1241    1863    8449   16917    0.00    1.91    0.13    0.27    0.39    0.66    0.47    0.00    1.42    0.08    0.17    0.27    0.50    0.39    0.00    0.49    0.05    0.09    0.12    0.15    0.08       0
 2013 277   122    4469   0.157    5081   0.179   32300       0   32300    1117    2233    3360    8526   17065       0     240      36      71     111       9      13    2968     460     921    1385      67     134   29091     620    1241    1863    8449   16917    0.00    2.00    0.13    0.28    0.41    0.70    0.47    0.00    1.50    0.08    0.19    0.29    0.55    0.40    0.00    0.49    0.05    0.09    0.12    0.16    0.08       0
 2013 278   123    4469   0.157    5081   0.179   32300       0   32300    1117    2233    3359    8526   17065       0     240      36      70     111       9      13    2967     460     921    1385      67     134   29091     620    1241    1863    8449   16917    0.00    2.08    0.14    0.29    0.43    0.75    0.48    0.00    1.58    0.09    0.19    0.31    0.59    0.40    0.00    0.50    0.05    0.09    0.12    0.16    0.08       0
 2013 279   124    4468   0.157    5081   0.179   32299       0   32299    1117    2232    3359    8526   17065       0     240      36      70     111       9      13    2967     460     920    1385      67     134   29090     620    1241    1863    8449   16917    0.00    2.16    0.14    0.30    0.45    0.79    0.48    0.00    1.66    0.09    0.20    0.33    0.63    0.40    0.00    0.51    0.05    0.10    0.12    0.16    0.08       0
 2013 280   125    4468   0.157    5081   0.179   32299       0   32299    1117    2232    3359    8526   17065       0     240      36      70     111       9      13    2966     460     920    1385      67     134   29090     620    1241    1863    8449   16917    0.00    2.24    0.15    0.31    0.47    0.84    0.48    0.00    1.73    0.10    0.21    0.34    0.67    0.40    0.00    0.51    0.05    0.10    0.12    0.16    0.08       0
 2013 281   126    4467   0.157    5081   0.179   32298       0   32298    1116    2232    3359    8526   17065       0     239      36      70     111       9      13    2966     460     920    1384      67     134   29090     621    1241    1863    8449   16917    0.00    2.31    0.15    0.32    0.48    0.88    0.48    0.00    1.79    0.10    0.22    0.35    0.72    0.40    0.00    0.52    0.05    0.10    0.12    0.17    0.08       0
 2013 282   127    4467   0.157    5080   0.179   32297       0   32297    1116    2232    3358    8526   17065       0     239      36      70     111       9      13    2965     460     920    1384      67     134   29090     621    1242    1863    8449   16917    0.00    2.37    0.16    0.33    0.49    0.92    0.49    0.00    1.85    0.11    0.23    0.36    0.75    0.41    0.00    0.52    0.05    0.10    0.12    0.17    0.08       0
 2013 283   128    4466   0.157    5080   0.179   32296       0   32296    1116    2231    3358    8526   17065       0     239      36      70     111      10      13    2964     460     920    1384      67     134   29090     621    1242    1863    8449   16917    0.00    2.43    0.16    0.33    0.50    0.95    0.49    0.00    1.90    0.11    0.23    0.37    0.78    0.41    0.00    0.53    0.05    0.10    0.13    0.17    0.08       0
 2013 284   129    4466   0.157    5080   0.179   32295       0   32295    1116    2231    3358    8526   17065       0     239      36      70     111      10      13    2964     460     919    1383      67     134   29090     621    1242    1863    8449   16917    0.00    2.49    0.17    0.34    0.51    0.98    0.49    0.00    1.95    0.11    0.24    0.38    0.81    0.41    0.00    0.53    0.05    0.10    0.13    0.18    0.08       0
 2013 285   130    4465   0.157    5079   0.179   32294       0   32294    1116    2231    3357    8526   17065       0     238      36      70     111      10      13    2963     460     919    1383      67     134   29090     621    1242    1863    8449   16917    0.00    2.54    0.17    0.35    0.52    1.02    0.49    0.00    2.00    0.12    0.25    0.39    0.84    0.41    0.00    0.54    0.05    0.10    0.13    0.18    0.08       0
 2013 286   131    4464   0.157    5079   0.179   32294       0   32294    1116    2231    3357    8526   17065       0     238      35      70     111      10      13    2963     459     919    1383      67     134   29090     621    1242    1863    8448   16917    0.00    2.60    0.18    0.36    0.53    1.05    0.49    0.00    2.06    0.12    0.25    0.40    0.87    0.41    0.00    0.55    0.05    0.10    0.13    0.18    0.08       0
 2013 287   132    4464   0.157    5079   0.179   32293       0   32293    1115    2230    3357    8526   17065       0     238      35      69     110      10      13    2962     459     919    1383      67     134   29090     621    1242    1863    8448   16917    0.00    2.66    0.18    0.36    0.54    1.08    0.50    0.00    2.11    0.13    0.26    0.41    0.90    0.42    0.00    0.55    0.05    0.10    0.13    0.18    0.08       0
 2013 288   133    4463   0.157    5079   0.179   32292       0   32292    1115    2230    3356    8526   17064       0     238      35      69     110      10      13    2962     459     919    1382      67     134   29090     621    1242    1863    8448   16917    0.00    2.72    0.18    0.37    0.55    1.11    0.50    0.00    2.16    0.13    0.27    0.42    0.93    0.42    0.00    0.56    0.05    0.10    0.13    0.19    0.08       0
 2013 289   134    4463   0.157    5079   0.179   32292       0   32292    1115    2230    3356    8526   17064       0     238      35      69     110      10      13    2961     459     919    1382      67     134   29090     621    1242    1863    8448   16917    0.00    2.78    0.19    0.38    0.56    1.15    0.50    0.00    2.22    0.13    0.28    0.43    0.96    0.42    0.00    0.56    0.06    0.10    0.13    0.19    0.08       0
 2013 290   135    4463   0.157    5078   0.179   32291       0   32291    1115    2230    3356    8526   17064       0     237      35      69     110      10      13    2961     459     919    1382      67     134   29090     621    1242    1863    8448   16917    0.00    2.84    0.19    0.39    0.58    1.18    0.50    0.00    2.28    0.14    0.29    0.44    0.98    0.42    0.00    0.57    0.06    0.10    0.13    0.19    0.08       0
 2013 291   136    4462   0.157    5078   0.179   32291       0   32291    1115    2230    3356    8526   17064       0     237      35      69     110      10      13    2960     459     918    1382      67     134   29090     621    1242    1863    8448   16917    0.00    2.91    0.20    0.41    0.59    1.21    0.50    0.00    2.34    0.14    0.30    0.46    1.01    0.42    0.00    0.57    0.06    0.11    0.14    0.20    0.08       0
 2013 292   137    4462   0.157    5078   0.179   32290       0   32290    1115    2230    3355    8526   17064       0     237      35      69     110      10      13    2960     459     918    1382      67     134   29090     621    1242    1863    8448   16917    0.00    2.98    0.20    0.42    0.61    1.24    0.51    0.00    2.40    0.15    0.31    0.47    1.04    0.42    0.00    0.58    0.06    0.11    0.14    0.20    0.08       0
 2013 293   138    4462   0.157    5078   0.179   32290       0   32290    1115    2229    3355    8526   17064       0     237      35      69     110      10      13    2960     459     918    1382      67     134   29090     621    1242    1863    8448   16917    0.00    3.05    0.21    0.43    0.63    1.28    0.51    0.00    2.47    0.15    0.32    0.49    1.08    0.42    0.00    0.59    0.06    0.11    0.14    0.20    0.08       0
 2013 294   139    4462   0.157    5078   0.179   32289       0   32289    1115    2229    3355    8526   17064       0     237      35      69     110      10      13    2960     459     918    1381      67     134   29090     621    1242    1863    8448   16916    0.00    3.13    0.22    0.44    0.65    1.32    0.51    0.00    2.54    0.16    0.33    0.50    1.11    0.43    0.00    0.59    0.06    0.11    0.14    0.21    0.08       0
 2013 295   140    4461   0.157    5078   0.179   32289       0   32289    1115    2229    3355    8526   17064       0     237      35      69     110      10      13    2959     459     918    1381      67     134   29090     621    1242    1863    8448   16916    0.00    3.21    0.23    0.46    0.66    1.35    0.51    0.00    2.61    0.17    0.35    0.52    1.15    0.43    0.00    0.60    0.06    0.11    0.14    0.21    0.08       0
 2013 296   141    4461   0.157    5078   0.179   32289       0   32289    1115    2229    3355    8526   17064       0     237      35      69     110      10      13    2959     459     918    1381      67     134   29090     621    1242    1863    8448   16916    0.00    3.29    0.23    0.47    0.69    1.39    0.51    0.00    2.69    0.18    0.36    0.54    1.18    0.43    0.00    0.61    0.06    0.11    0.14    0.21    0.08       0
 2013 297   142    4461   0.157    5078   0.179   32289       0   32289    1115    2229    3355    8526   17064       0     237      35      69     110      10      13    2959     459     918    1381      67     134   29090     621    1242    1863    8448   16916    0.00    3.26    0.23    0.47    0.68    1.38    0.51    0.00    2.66    0.17    0.36    0.54    1.17    0.42    0.00    0.61    0.06    0.11    0.14    0.21    0.08       0
 2013 298   143    4461   0.157    5078   0.179   32288       0   32288    1115    2229    3355    8526   17064       0     237      35      69     110      10      13    2959     459     918    1381      67     134   29090     621    1242    1863    8448   16916    0.00    3.23    0.23    0.46    0.67    1.37    0.50    0.00    2.63    0.17    0.35    0.53    1.16    0.42    0.00    0.60    0.06    0.11    0.14    0.21    0.08       0
 2013 299   144    4461   0.157    5077   0.179   32288       0   32288    1114    2229    3354    8526   17064       0     237      35      69     110      10      13    2959     459     918    1381      67     134   29090     621    1242    1863    8448   16916    0.00    3.21    0.22    0.46    0.67    1.36    0.50    0.00    2.60    0.16    0.35    0.53    1.15    0.41    0.00    0.60    0.06    0.11    0.14    0.21    0.08       0
 2013 300   145    4460   0.157    5077   0.179   32288       0   32288    1114    2229    3354    8526   17064       0     236      35      69     110      10      13    2959     459     918    1381      67     134   29090     621    1242    1863    8448   16916    0.00    3.18    0.21    0.46    0.67    1.35    0.49    0.00    2.58    0.15    0.35    0.52    1.14    0.41    0.00    0.60    0.06    0.11    0.14    0.21    0.08       0
 2013 301   146    4460   0.157    5077   0.179   32288       0   32288    1114    2229    3354    8526   17064       0     236      35      69     110      10      13    2959     459     918    1381      67     134   29089     621    1242    1863    8448   16916    0.00    3.16    0.21    0.46    0.66    1.34    0.49    0.00    2.56    0.15    0.35    0.52    1.13    0.41    0.00    0.60    0.06    0.11    0.14    0.21    0.08       0
 2013 302   147    4460   0.157    5077   0.179   32287       0   32287    1114    2229    3354    8526   17064       0     236      35      69     110      10      13    2958     458     918    1381      67     134   29089     621    1242    1863    8448   16916    0.00    3.15    0.21    0.46    0.66    1.34    0.48    0.00    2.54    0.15    0.35    0.52    1.13    0.40    0.00    0.60    0.06    0.11    0.14    0.21    0.08       0
 2013 303   148    4460   0.157    5077   0.179   32287       0   32287    1114    2229    3354    8526   17064       0     236      35      69     110      10      13    2958     458     918    1381      67     134   29089     621    1242    1863    8448   16916    0.00    3.13    0.20    0.46    0.66    1.33    0.48    0.00    2.53    0.15    0.35    0.51    1.12    0.40    0.00    0.60    0.06    0.11    0.14    0.21    0.08       0
 2013 304   149    4460   0.157    5077   0.179   32287       0   32287    1114    2229    3354    8526   17064       0     236      35      69     110      10      13    2958     458     918    1381      67     134   29089     621    1242    1863    8448   16916    0.00    3.12    0.20    0.46    0.66    1.33    0.48    0.00    2.52    0.14    0.35    0.51    1.12    0.39    0.00    0.60    0.06    0.11    0.14    0.21    0.08       0
 2013 305   150    4460   0.157    5077   0.179   32287       0   32287    1114    2229    3354    8526   17064       0     236      35      69     110      10      13    2958     458     918    1381      67     134   29089     621    1242    1863    8448   16916    0.00    3.11    0.20    0.46    0.65    1.32    0.47    0.00    2.51    0.14    0.35    0.51    1.11    0.39    0.00    0.60    0.06    0.11    0.14    0.21    0.08       0
 2013 306   151    4460   0.157    5077   0.179   32287       0   32287    1114    2229    3354    8526   17064       0     236      35      69     110      10      13    2958     458     918    1381      67     134   29089     621    1242    1863    8448   16916    0.00    3.10    0.20    0.46    0.65    1.32    0.47    0.00    2.50    0.14    0.35    0.51    1.11    0.39    0.00    0.60    0.06    0.11    0.14    0.21    0.08       0
 2013 307   152    4460   0.157    5077   0.179   32287       0   32287    1114    2229    3354    8526   17064       0     236      35      69     110      10      13    2958     458     918    1381      67     134   29089     621    1242    1863    8448   16916    0.00    3.09    0.20    0.45    0.65    1.32    0.47    0.00    2.49    0.14    0.35    0.51    1.11    0.38    0.00    0.60    0.06    0.11    0.14    0.21    0.08       0
 2013 308   153    4460   0.157    5077   0.179   32287       0   32287    1114    2229    3354    8526   17064       0     236      35      69     110      10      13    2958     458     918    1381      67     134   29089     621    1242    1863    8448   16916    0.00    3.08    0.20    0.45    0.65    1.32    0.46    0.00    2.48    0.14    0.34    0.51    1.11    0.38    0.00    0.60    0.06    0.11    0.14    0.21    0.08       0
 2013 309   154    4460   0.157    5077   0.179   32287       0   32287    1114    2229    3354    8526   17064       0     236      35      69     110      10      13    2958     458     918    1381      67     134   29089     621    1242    1863    8448   16916    0.00    3.08    0.20    0.45    0.65    1.31    0.46    0.00    2.47    0.14    0.34    0.51    1.10    0.38    0.00    0.60    0.06    0.11    0.14    0.21    0.08       0
 2013 310   155    4460   0.157    5077   0.179   32287       0   32287    1114    2229    3354    8526   17064       0     236      35      69     110      10      13    2958     458     918    1381      67     134   29089     621    1242    1863    8448   16916    0.00    3.07    0.20    0.45    0.65    1.31    0.46    0.00    2.47    0.14    0.34    0.51    1.10    0.37    0.00    0.60    0.06    0.11    0.14    0.21    0.08       0
 2013 311   156    4460   0.157    5077   0.179   32287       0   32287    1114    2229    3354    8526   17064       0     236      35      69     110      10      13    2958     458     918    1381      67     134   29089     621    1242    1863    8448   16916    0.00    3.06    0.20    0.45    0.65    1.31    0.45    0.00    2.46    0.14    0.34    0.51    1.10    0.37    0.00    0.60    0.06    0.11    0.14    0.21    0.08       0
 2013 312   157    4460   0.157    5077   0.179   32286       0   32286    1114    2229    3354    8526   17064       0     236      35      69     110      10      13    2958     458     918    1381      67     134   29089     621    1242    1863    8448   16916    0.00    3.05    0.20    0.45    0.65    1.31    0.45    0.00    2.45    0.14    0.34    0.50    1.10    0.37    0.00    0.60    0.06    0.11    0.14    0.21    0.08       0
 2013 313   158    4460   0.157    5077   0.179   32286       0   32286    1114    2229    3354    8526   17063       0     236      35      69     110      10      13    2958     458     918    1381      67     134   29089     621    1242    1863    8448   16916    0.00    3.05    0.20    0.45    0.65    1.30    0.45    0.00    2.45    0.14    0.34    0.50    1.09    0.37    0.00    0.60    0.06    0.11    0.14    0.21    0.08       0
 2013 314   159    4460   0.157    5077   0.179   32286       0   32286    1114    2229    3354    8526   17063       0     236      35      69     110      10      13    2958     458     918    1381      67     134   29089     621    1242    1863    8448   16916    0.00    3.04    0.20    0.45    0.64    1.30    0.44    0.00    2.44    0.14    0.34    0.50    1.09    0.36    0.00    0.60    0.06    0.11    0.14    0.21    0.08       0
 2013 315   160    4460   0.157    5077   0.179   32286       0   32286    1114    2229    3354    8526   17063       0     236      35      69     110      10      13    2958     458     918    1381      67     134   29089     621    1242    1863    8448   16916    0.00    3.03    0.20    0.45    0.64    1.30    0.44    0.00    2.43    0.14    0.34    0.50    1.09    0.36    0.00    0.60    0.06    0.11    0.14    0.21    0.08       0
 2013 316   161    4460   0.157    5077   0.179   32286       0   32286    1114    2229    3354    8526   17063       0     236      35      69     110      10      13    2958     458     918    1381      67     134   29089     621    1242    1863    8448   16916    0.00    3.03    0.20    0.45    0.64    1.30    0.44    0.00    2.43    0.14    0.34    0.50    1.09    0.36    0.00    0.60    0.06    0.11    0.14    0.21    0.08       0
 2013 317   162    4460   0.157    5077   0.179   32286       0   32286    1114    2229    3354    8526   17063       0     236      35      69     110      10      13    2958     458     918    1381      67     134   29089     621    1242    1863    8448   16916    0.00    3.02    0.20    0.45    0.64    1.30    0.44    0.00    2.42    0.14    0.34    0.50    1.09    0.35    0.00    0.60    0.06    0.11    0.14    0.21    0.08       0
 2013 318   163    4460   0.157    5077   0.179   32286       0   32286    1114    2229    3354    8526   17063       0     236      35      69     110      10      13    2958     458     918    1381      67     134   29089     621    1242    1863    8448   16916    0.00    3.01    0.20    0.45    0.64    1.29    0.43    0.00    2.41    0.14    0.34    0.50    1.08    0.35    0.00    0.60    0.06    0.11    0.14    0.21    0.08       0
 2013 319   164    4460   0.157    5077   0.179   32286       0   32286    1114    2229    3354    8526   17063       0     236      35      69     110      10      13    2958     458     918    1381      67     134   29089     621    1242    1863    8448   16916    0.00    3.00    0.19    0.45    0.64    1.29    0.43    0.00    2.40    0.13    0.34    0.50    1.08    0.35    0.00    0.60    0.06    0.11    0.14    0.21    0.08       0
 2013 320   165    4459   0.157    5077   0.179   32285       0   32285    1114    2229    3354    8526   17063       0     236      35      69     110      10      13    2958     458     918    1381      67     134   29089     621    1242    1863    8448   16916    0.00    2.98    0.18    0.44    0.64    1.29    0.43    0.00    2.38    0.13    0.33    0.50    1.08    0.35    0.00    0.60    0.06    0.11    0.14    0.21    0.08       0
 2013 321   166    4459   0.157    5077   0.179   32285       0   32285    1113    2228    3354    8526   17063       0     236      35      69     110      10      13    2957     458     917    1381      67     134   29089     621    1242    1863    8448   16916    0.00    2.95    0.18    0.42    0.64    1.29    0.43    0.00    2.35    0.12    0.31    0.50    1.08    0.34    0.00    0.60    0.06    0.11    0.14    0.21    0.08       0
 2013 322   167    4458   0.157    5077   0.179   32284       0   32284    1113    2228    3354    8526   17063       0     236      34      69     110      10      13    2957     458     917    1381      67     134   29089     621    1242    1863    8448   16916    0.00    2.93    0.17    0.41    0.64    1.29    0.42    0.00    2.33    0.12    0.30    0.49    1.08    0.34    0.00    0.60    0.06    0.11    0.14    0.21    0.08       0
 2013 323   168    4458   0.157    5077   0.179   32284       0   32284    1113    2228    3354    8526   17063       0     235      34      68     110      10      13    2957     458     917    1381      67     134   29089     621    1242    1863    8448   16916    0.00    2.91    0.17    0.40    0.64    1.28    0.42    0.00    2.31    0.11    0.29    0.49    1.07    0.34    0.00    0.60    0.06    0.11    0.14    0.21    0.08       0
 2013 324   169    4458   0.157    5077   0.179   32284       0   32284    1113    2228    3354    8526   17063       0     235      34      68     110      10      13    2956     458     917    1381      67     134   29089     621    1242    1863    8448   16916    0.00    2.89    0.17    0.39    0.64    1.28    0.42    0.00    2.29    0.11    0.28    0.49    1.07    0.34    0.00    0.60    0.06    0.11    0.14    0.21    0.08       0
 2013 325   170    4457   0.157    5077   0.179   32283       0   32283    1113    2227    3354    8526   17063       0     235      34      68     110      10      13    2956     458     917    1381      67     134   29089     621    1242    1863    8448   16916    0.00    2.87    0.16    0.38    0.63    1.28    0.42    0.00    2.28    0.10    0.27    0.49    1.07    0.34    0.00    0.60    0.06    0.11    0.14    0.21    0.08       0
 2013 326   171    4457   0.157    5077   0.179   32283       0   32283    1113    2227    3354    8526   17063       0     235      34      68     109      10      13    2956     458     917    1381      67     134   29089     621    1242    1863    8448   16915    0.00    2.86    0.16    0.38    0.63    1.28    0.41    0.00    2.26    0.10    0.27    0.49    1.07    0.33    0.00    0.60    0.06    0.11    0.14    0.21    0.08       0
 2013 327   172    4457   0.157    5077   0.179   32283       0   32283    1113    2227    3354    8526   17063       0     235      34      68     109      10      13    2956     458     917    1381      67     134   29089     621    1242    1863    8448   16915    0.00    2.85    0.16    0.37    0.63    1.27    0.41    0.00    2.25    0.10    0.27    0.49    1.07    0.33    0.00    0.60    0.06    0.11    0.14    0.21    0.08       0
 2013 328   173    4457   0.157    5077   0.179   32283       0   32283    1113    2227    3354    8526   17063       0     235      34      68     109      10      13    2956     458     917    1381      67     134   29089     621    1242    1863    8448   16915    0.00    2.84    0.15    0.37    0.63    1.27    0.41    0.00    2.24    0.10    0.26    0.49    1.06    0.33    0.00    0.60    0.06    0.11    0.14    0.21    0.08       0
 2013 329   174    4457   0.157    5077   0.179   32283       0   32283    1113    2227    3354    8526   17063       0     235      34      68     109      10      13    2956     458     917    1381      67     134   29089     621    1242    1863    8448   16915    0.00    2.83    0.15    0.37    0.63    1.27    0.41    0.00    2.24    0.10    0.26    0.49    1.06    0.33    0.00    0.60    0.06    0.11    0.14    0.21    0.08       0
 2013 330   175    4457   0.157    5077   0.179   32282       0   32282    1113    2227    3354    8526   17063       0     235      34      68     109      10      13    2956     458     917    1381      67     134   29089     621    1242    1863    8448   16915    0.00    2.82    0.15    0.37    0.63    1.27    0.41    0.00    2.23    0.10    0.26    0.49    1.06    0.33    0.00    0.60    0.06    0.11    0.14    0.21    0.08       0
 2013 331   176    4457   0.157    5077   0.179   32282       0   32282    1113    2227    3354    8526   17063       0     235      34      68     109      10      13    2956     458     917    1381      67     134   29089     621    1242    1863    8448   16915    0.00    2.82    0.15    0.37    0.63    1.27    0.40    0.00    2.22    0.10    0.26    0.49    1.06    0.32    0.00    0.60    0.06    0.11    0.14    0.21    0.08       0
 2013 332   177    4457   0.157    5077   0.179   32282       0   32282    1113    2227    3354    8526   17063       0     235      34      68     109      10      13    2956     458     917    1381      67     134   29089     621    1242    1863    8448   16915    0.00    2.81    0.15    0.37    0.63    1.26    0.40    0.00    2.22    0.09    0.26    0.49    1.05    0.32    0.00    0.60    0.06    0.11    0.14    0.21    0.08       0
 2013 333   178    4457   0.157    5077   0.179   32282       0   32282    1113    2227    3354    8526   17063       0     235      34      68     109      10      13    2956     458     917    1381      67     134   29089     621    1242    1863    8448   16915    0.00    2.81    0.15    0.37    0.63    1.26    0.40    0.00    2.21    0.09    0.26    0.48    1.05    0.32    0.00    0.60    0.06    0.11    0.14    0.21    0.08       0
 2013 334   179    4457   0.157    5077   0.179   32282       0   32282    1113    2227    3354    8526   17063       0     235      34      68     109      10      13    2956     458     917    1381      67     134   29089     621    1242    1863    8448   16915    0.00    2.80    0.15    0.37    0.63    1.26    0.40    0.00    2.20    0.09    0.26    0.48    1.05    0.32    0.00    0.60    0.06    0.11    0.14    0.21    0.08       0
 2013 335   180    4457   0.157    5077   0.179   32282       0   32282    1113    2227    3354    8526   17063       0     235      34      68     109      10      13    2956     458     917    1381      67     134   29089     621    1242    1863    8448   16915    0.00    2.80    0.15    0.36    0.62    1.26    0.40    0.00    2.20    0.09    0.26    0.48    1.05    0.32    0.00    0.60    0.06    0.11    0.14    0.21    0.08       0
 2013 336   181    4457   0.157    5077   0.179   32282       0   32282    1113    2227    3354    8526   17063       0     235      34      68     109      10      13    2956     458     917    1381      67     134   29089     621    1242    1863    8448   16915    0.00    2.79    0.15    0.36    0.62    1.26    0.40    0.00    2.19    0.09    0.26    0.48    1.05    0.32    0.00    0.60    0.06    0.11    0.14    0.21    0.08       0
 2013 337   182    4457   0.157    5077   0.179   32282       0   32282    1113    2227    3354    8526   17063       0     235      34      68     109      10      13    2956     458     917    1381      67     134   29089     621    1242    1863    8448   16915    0.00    2.78    0.15    0.36    0.62    1.25    0.39    0.00    2.19    0.09    0.26    0.48    1.04    0.31    0.00    0.60    0.06    0.11    0.14    0.21    0.08       0
 2013 338   183    4457   0.157    5077   0.179   32282       0   32282    1113    2227    3354    8526   17063       0     235      34      68     109      10      13    2956     458     917    1381      67     134   29089     621    1242    1863    8448   16915    0.00    2.78    0.15    0.36    0.62    1.25    0.39    0.00    2.18    0.09    0.26    0.48    1.04    0.31    0.00    0.60    0.06    0.11    0.14    0.21    0.08       0
 2013 339   184    4457   0.157    5077   0.179   32282       0   32282    1113    2227    3354    8526   17063       0     235      34      68     109      10      13    2956     458     917    1380      67     134   29089     621    1242    1863    8448   16915    0.00    2.77    0.15    0.36    0.62    1.25    0.39    0.00    2.18    0.09    0.26    0.48    1.04    0.31    0.00    0.60    0.06    0.11    0.14    0.21    0.08       0
 2013 340   185    4457   0.157    5077   0.179   32282       0   32282    1112    2227    3354    8526   17063       0     235      34      68     109      10      13    2955     457     917    1380      67     134   29089     621    1242    1863    8448   16915    0.00    2.77    0.15    0.36    0.62    1.25    0.39    0.00    2.17    0.09    0.25    0.48    1.04    0.31    0.00    0.60    0.06    0.11    0.14    0.21    0.08       0
 2013 341   186    4457   0.157    5077   0.179   32282       0   32282    1112    2227    3354    8526   17063       0     235      34      68     109      10      13    2955     457     917    1380      67     134   29088     621    1242    1863    8448   16915    0.00    2.76    0.15    0.36    0.62    1.24    0.39    0.00    2.17    0.09    0.25    0.48    1.04    0.31    0.00    0.60    0.06    0.11    0.14    0.21    0.08       0
 2013 342   187    4457   0.157    5077   0.179   32282       0   32282    1112    2227    3354    8526   17063       0     235      34      68     109      10      13    2955     457     917    1380      67     134   29088     621    1242    1863    8448   16915    0.00    2.76    0.15    0.36    0.62    1.24    0.39    0.00    2.16    0.09    0.25    0.48    1.03    0.31    0.00    0.60    0.06    0.11    0.14    0.21    0.08       0
 2013 343   188    4456   0.157    5077   0.179   32282       0   32282    1112    2227    3354    8526   17063       0     235      34      68     109      10      13    2955     457     917    1380      67     134   29088     621    1242    1863    8448   16915    0.00    2.75    0.15    0.36    0.62    1.24    0.39    0.00    2.16    0.09    0.25    0.48    1.03    0.31    0.00    0.60    0.06    0.11    0.14    0.21    0.08       0
 2013 344   189    4456   0.157    5077   0.179   32281       0   32281    1112    2227    3353    8526   17063       0     235      34      68     109      10      13    2955     457     917    1380      67     134   29088     621    1242    1863    8448   16915    0.00    2.75    0.15    0.36    0.62    1.24    0.38    0.00    2.15    0.09    0.25    0.47    1.03    0.30    0.00    0.59    0.06    0.11    0.14    0.21    0.08       0
 2013 345   190    4456   0.157    5077   0.179   32281       0   32281    1112    2227    3353    8526   17063       0     235      34      68     109      10      13    2955     457     917    1380      67     134   29088     621    1242    1863    8448   16915    0.00    2.74    0.15    0.36    0.62    1.24    0.38    0.00    2.15    0.09    0.25    0.47    1.03    0.30    0.00    0.59    0.06    0.11    0.14    0.21    0.08       0
 2013 346   191    4456   0.157    5077   0.179   32281       0   32281    1112    2227    3353    8526   17063       0     235      34      68     109      10      13    2955     457     917    1380      67     134   29088     621    1242    1863    8448   16915    0.00    2.74    0.15    0.36    0.61    1.23    0.38    0.00    2.14    0.09    0.25    0.47    1.03    0.30    0.00    0.59    0.06    0.11    0.14    0.21    0.08       0
 2013 347   192    4456   0.157    5077   0.179   32281       0   32281    1112    2227    3353    8526   17063       0     235      34      68     109      10      13    2955     457     917    1380      67     134   29088     621    1242    1863    8448   16915    0.00    2.73    0.15    0.36    0.61    1.23    0.38    0.00    2.14    0.09    0.25    0.47    1.02    0.30    0.00    0.59    0.06    0.11    0.14    0.21    0.08       0
 2013 348   193    4456   0.157    5077   0.179   32281       0   32281    1112    2227    3353    8526   17063       0     235      34      68     109      10      13    2955     457     917    1380      67     134   29088     621    1242    1863    8448   16915    0.00    2.73    0.15    0.36    0.61    1.23    0.38    0.00    2.13    0.09    0.25    0.47    1.02    0.30    0.00    0.59    0.06    0.11    0.14    0.21    0.08       0
 2013 349   194    4456   0.157    5077   0.179   32281       0   32281    1112    2227    3353    8526   17063       0     235      34      68     109      10      13    2955     457     917    1380      67     134   29088     621    1242    1863    8448   16915    0.00    2.72    0.15    0.36    0.61    1.23    0.38    0.00    2.13    0.09    0.25    0.47    1.02    0.30    0.00    0.59    0.06    0.11    0.14    0.21    0.08       0
 2013 350   195    4456   0.157    5077   0.179   32281       0   32281    1112    2227    3353    8526   17063       0     235      34      68     109      10      13    2955     457     917    1380      67     134   29088     621    1242    1863    8448   16915    0.00    2.72    0.15    0.36    0.61    1.23    0.38    0.00    2.12    0.09    0.25    0.47    1.02    0.30    0.00    0.59    0.06    0.11    0.14    0.21    0.08       0
 2013 351   196    4456   0.157    5077   0.179   32281       0   32281    1112    2227    3353    8526   17063       0     235      34      68     109      10      13    2955     457     917    1380      67     134   29088     621    1242    1863    8448   16915    0.00    2.71    0.15    0.36    0.61    1.22    0.38    0.00    2.12    0.09    0.25    0.47    1.02    0.30    0.00    0.59    0.06    0.11    0.14    0.21    0.08       0
 2013 352   197    4456   0.157    5077   0.179   32281       0   32281    1112    2227    3353    8526   17062       0     235      34      68     109      10      13    2955     457     917    1380      67     134   29088     621    1242    1863    8448   16915    0.00    2.71    0.15    0.36    0.61    1.22    0.37    0.00    2.11    0.09    0.25    0.47    1.01    0.29    0.00    0.59    0.06    0.11    0.14    0.21    0.08       0
 2013 353   198    4456   0.157    5077   0.179   32281       0   32281    1112    2227    3353    8526   17062       0     235      34      68     109      10      13    2955     457     917    1380      67     134   29088     621    1242    1863    8448   16915    0.00    2.70    0.15    0.36    0.61    1.22    0.37    0.00    2.11    0.09    0.25    0.47    1.01    0.29    0.00    0.59    0.06    0.11    0.14    0.21    0.08       0
 2013 354   199    4456   0.157    5077   0.179   32281       0   32281    1112    2227    3353    8526   17062       0     235      34      68     109      10      13    2955     457     916    1380      67     134   29088     621    1242    1863    8448   16915    0.00    2.70    0.15    0.36    0.61    1.22    0.37    0.00    2.11    0.09    0.25    0.47    1.01    0.29    0.00    0.59    0.06    0.11    0.14    0.21    0.08       0
 2013 355   200    4456   0.157    5077   0.179   32281       0   32281    1112    2227    3353    8526   17062       0     235      34      68     109      10      13    2955     457     916    1380      67     134   29088     621    1242    1863    8448   16915    0.00    2.70    0.15    0.35    0.61    1.22    0.37    0.00    2.10    0.09    0.25    0.46    1.01    0.29    0.00    0.59    0.06    0.11    0.14    0.21    0.08       0
 2013 356   201    4456   0.157    5077   0.179   32281       0   32281    1112    2227    3353    8526   17062       0     235      34      68     109      10      13    2955     457     916    1380      67     134   29088     621    1242    1863    8448   16915    0.00    2.69    0.15    0.35    0.61    1.21    0.37    0.00    2.10    0.09    0.25    0.46    1.01    0.29    0.00    0.59    0.06    0.11    0.14    0.21    0.08       0
 2013 357   202    4456   0.157    5077   0.179   32281       0   32281    1112    2227    3353    8526   17062       0     235      34      68     109      10      13    2955     457     916    1380      67     134   29088     621    1242    1863    8448   16915    0.00    2.69    0.15    0.35    0.60    1.21    0.37    0.00    2.09    0.09    0.25    0.46    1.00    0.29    0.00    0.59    0.06    0.11    0.14    0.21    0.08       0
 2013 358   203    4456   0.157    5077   0.179   32281       0   32281    1112    2227    3353    8526   17062       0     235      34      68     109      10      13    2955     457     916    1380      67     134   29088     621    1242    1863    8448   16915    0.00    2.68    0.15    0.35    0.60    1.21    0.37    0.00    2.09    0.09    0.25    0.46    1.00    0.29    0.00    0.59    0.06    0.11    0.14    0.21    0.08       0
 2013 359   204    4456   0.157    5077   0.179   32281       0   32281    1112    2227    3353    8526   17062       0     235      34      68     109      10      13    2955     457     916    1380      67     134   29088     621    1242    1863    8448   16915    0.00    2.68    0.15    0.35    0.60    1.21    0.37    0.00    2.08    0.09    0.25    0.46    1.00    0.29    0.00    0.59    0.06    0.11    0.14    0.21    0.08       0
 2013 360   205    4456   0.157    5077   0.179   32281       0   32281    1112    2227    3353    8526   17062       0     235      34      68     109      10      13    2955     457     916    1380      67     134   29088     621    1242    1863    8448   16915    0.00    2.67    0.15    0.35    0.60    1.21    0.37    0.00    2.08    0.09    0.25    0.46    1.00    0.29    0.00    0.59    0.06    0.11    0.14    0.21    0.08       0
 2013 361   206    4456   0.157    5077   0.179   32280       0   32280    1112    2227    3353    8526   17062       0     235      34      68     109      10      13    2955     457     916    1380      67     134   29088     621    1242    1863    8448   16915    0.00    2.67    0.15    0.35    0.60    1.20    0.37    0.00    2.08    0.09    0.24    0.46    0.99    0.29    0.00    0.59    0.06    0.11    0.14    0.21    0.08       0
 2013 362   207    4456   0.157    5077   0.179   32280       0   32280    1112    2227    3353    8526   17062       0     235      34      68     109      10      13    2955     457     916    1380      67     134   29088     621    1242    1863    8448   16915    0.00    2.66    0.15    0.35    0.60    1.20    0.37    0.00    2.07    0.09    0.24    0.46    0.99    0.29    0.00    0.59    0.06    0.11    0.14    0.21    0.08       0
 2013 363   208    4456   0.157    5077   0.179   32280       0   32280    1112    2227    3353    8526   17062       0     235      34      68     109      10      13    2955     457     916    1380      67     134   29088     621    1242    1863    8448   16915    0.00    2.66    0.15    0.35    0.60    1.20    0.37    0.00    2.07    0.09    0.24    0.46    0.99    0.29    0.00    0.59    0.06    0.11    0.14    0.21    0.08       0
