*WARNING DETAIL FILE

******************************************************************************

*DSSAT Cropping System Model Ver. 4.7.2.000 -release      OCT 15, 2021; 17:59:33
                                                                                
*RUN   1        :             CSM335_date_1 MZCER047 ITSA1301    1              
 MODEL          : MZCER047 - Maize                                              
 EXPERIMENT     : ITSA1301 SG CALIBRATION SETUP OF SORGHUM SOWING DATES         
 DATA PATH      :                                                               
 TREATMENT  1   :             CSM335_date_1 MZCER047                            
  

 SOILDYN  YEAR DOY = 2013 156
 Organic C data in one or more soil layers are zero or missing.                
 A minimum value of OC in this layer  will be estimated using soil texture.    
       Depth  Clay  Silt    OC                                                 
 Layer  (cm)   (%)   (%)   (%)                                                 
     1     5  70.0  20.0  1.80                                                 
     2    15  70.0  20.0  1.80                                                 
     3    30  70.0  20.0  1.80                                                 
     4    60  70.0  20.0  1.42 (estimated)                                     
     5    90  70.0  20.0  1.42 (estimated)                                     
     6   120  70.0  20.0  1.42 (estimated)                                     
