*SOIL-PLANT-ATMOSPHERE MODULE OUTPUT FILE

*DSSAT Cropping System Model Ver. 4.7.2.000 -release      OCT 15, 2021; 17:59:33
                                                                                
*RUN   1        :             CSM335_date_1 MZCER047 ITSA1301    1              
 MODEL          : MZCER047 - Maize                                              
 EXPERIMENT     : ITSA1301 SG CALIBRATION SETUP OF SORGHUM SOWING DATES         
 DATA PATH      :                                                               
 TREATMENT  1   :             CSM335_date_1 MZCER047                            
  
!                                                                                                                                                Soil evaporation (mm/d) by soil depth (cm):
!                                                                                                                                                0-5    5-15   15-30   30-53   53-77  77-100
@YEAR DOY   DAS   SRAA  TMAXA  TMINA   EOAA   EOPA   EOSA   ETAA   EPAA   ESAA   EFAA   EMAA    EOAC    ETAC    EPAC    ESAC    EFAC    EMAC    ES1D    ES2D    ES3D    ES4D    ES5D    ES6D   TRWUD
 2008 110     1  21.20  35.60  24.80  6.268  0.000  6.268  1.218  0.000  1.218  0.000  0.000    6.27    1.22    0.00    1.22    0.00    0.00   1.016   0.132   0.040   0.018   0.008   0.004   0.000
 2008 111     2  23.70  36.50  25.40  7.336  0.000  7.336  1.121  0.000  1.121  0.000  0.000   13.60    2.34    0.00    2.34    0.00    0.00   0.919   0.131   0.040   0.018   0.008   0.004   0.000
 2008 112     3  23.80  33.10  24.40  6.585  0.000  6.585  1.384  0.000  1.384  0.000  0.000   20.19    3.72    0.00    3.72    0.00    0.00   1.152   0.158   0.044   0.018   0.008   0.004   0.000
 2008 113     4  23.70  33.50  25.40  6.851  0.000  6.851  6.638  0.000  6.638  0.000  0.000   27.04   10.36    0.00   10.36    0.00    0.00   1.845   1.425   1.132   0.966   0.717   0.554   0.000
 2008 114     5  15.00  31.50  24.50  4.156  0.000  4.156  4.156  0.000  4.156  0.000  0.000   31.20   14.52    0.00   14.52    0.00    0.00   1.068   0.891   0.730   0.641   0.466   0.361   0.000
 2008 115     6  21.50  34.70  25.20  6.160  0.000  6.160  1.275  0.000  1.275  0.000  0.000   37.35   15.79    0.00   15.79    0.00    0.00   1.044   0.155   0.046   0.019   0.008   0.004   0.000
 2008 116     7  13.90  31.50  24.90  3.822  0.010  3.812  1.185  0.010  1.175  0.000  0.000   41.18   16.98    0.01   16.97    0.00    0.00   0.944   0.154   0.046   0.019   0.008   0.004   0.001
 2008 117     8  24.80  32.20  24.10  6.790  0.031  6.759  6.407  0.031  6.376  0.000  0.000   47.97   23.38    0.04   23.34    0.00    0.00   1.672   1.373   1.120   0.968   0.700   0.543   0.003
 2008 118     9  13.50  32.80  25.10  3.851  0.026  3.825  3.851  0.026  3.825  0.000  0.000   51.82   27.23    0.07   27.17    0.00    0.00   1.119   0.818   0.650   0.552   0.386   0.300   0.003
 2008 119    10  14.10  34.20  24.90  4.086  0.038  4.047  4.086  0.038  4.047  0.000  0.000   55.90   31.32    0.11   31.22    0.00    0.00   1.121   0.852   0.703   0.632   0.416   0.324   0.004
 2008 120    11  15.60  35.00  24.50  4.491  0.055  4.436  4.491  0.055  4.436  0.000  0.000   60.40   35.81    0.16   35.65    0.00    0.00   1.163   0.928   0.783   0.731   0.467   0.365   0.005
 2008 121    12  22.50  34.00  24.60  6.371  0.097  6.273  1.393  0.097  1.296  0.000  0.000   66.77   37.20    0.26   36.95    0.00    0.00   1.062   0.155   0.047   0.020   0.007   0.004   0.010
 2008 122    13  23.10  30.00  24.30  6.216  0.156  6.059  6.215  0.156  6.059  0.000  0.000   72.98   43.42    0.41   43.01    0.00    0.00   1.566   1.279   1.098   1.010   0.635   0.471   0.016
 2008 123    14  16.70  33.00  24.30  4.734  0.152  4.581  4.733  0.152  4.581  0.000  0.000   77.72   48.15    0.57   47.59    0.00    0.00   1.210   0.933   0.800   0.769   0.522   0.346   0.015
 2008 124    15  11.20  33.30  26.10  3.186  0.137  3.048  3.185  0.137  3.048  0.000  0.000   80.90   51.34    0.70   50.64    0.00    0.00   0.755   0.620   0.530   0.524   0.383   0.237   0.014
 2008 125    16  22.20  33.00  26.50  6.275  0.349  5.924  6.273  0.349  5.924  0.000  0.000   87.18   57.61    1.05   56.56    0.00    0.00   1.556   1.226   1.002   0.979   0.723   0.437   0.035
 2008 126    17  12.90  33.00  25.50  3.669  0.244  3.424  3.668  0.244  3.424  0.000  0.000   90.85   61.28    1.29   59.98    0.00    0.00   0.940   0.717   0.570   0.547   0.407   0.243   0.024
 2008 127    18  15.70  34.50  26.60  4.572  0.370  4.200  4.570  0.370  4.200  0.000  0.000   95.42   65.85    1.66   64.18    0.00    0.00   1.106   0.845   0.703   0.689   0.524   0.333   0.037
 2008 128    19  20.20  33.00  23.00  5.578  0.545  5.031  5.575  0.545  5.031  0.000  0.000  101.00   71.42    2.21   69.21    0.00    0.00   1.248   1.001   0.855   0.845   0.645   0.437   0.054
 2008 129    20  22.40  34.30  24.90  6.292  0.712  5.576  1.796  0.518  1.278  0.000  0.000  107.29   73.22    2.73   70.49    0.00    0.00   1.042   0.153   0.048   0.022   0.009   0.004   0.052
 2008 130    21  15.30  34.00  25.60  4.277  0.517  3.757  1.680  0.507  1.173  0.000  0.000  111.56   74.90    3.23   71.67    0.00    0.00   0.939   0.151   0.047   0.022   0.009   0.004   0.051
 2008 131    22  22.60  33.50  24.90  6.213  0.855  5.353  1.969  0.620  1.349  0.000  0.000  117.78   76.87    3.85   73.01    0.00    0.00   1.112   0.154   0.047   0.022   0.009   0.004   0.062
 2008 132    23  17.00  32.80  25.90  4.773  0.706  4.063  4.770  0.706  4.063  0.000  0.000  122.55   81.64    4.56   77.08    0.00    0.00   1.074   0.797   0.658   0.668   0.515   0.351   0.071
 2008 133    24  22.20  32.10  23.90  6.035  1.049  4.980  2.259  0.856  1.403  0.000  0.000  128.59   83.90    5.42   78.48    0.00    0.00   1.169   0.153   0.046   0.021   0.009   0.004   0.086
 2008 134    25  13.50  33.50  24.60  3.732  0.696  3.033  2.026  0.696  1.331  0.000  0.000  132.32   85.92    6.11   79.81    0.00    0.00   1.100   0.150   0.045   0.021   0.009   0.004   0.070
 2008 135    26  15.10  31.10  26.00  4.078  0.853  3.221  2.030  0.814  1.216  0.000  0.000  136.40   87.95    6.93   81.03    0.00    0.00   0.988   0.148   0.045   0.021   0.009   0.004   0.081
 2008 136    27  20.20  33.10  24.50  5.476  1.226  4.242  1.949  0.832  1.117  0.000  0.000  141.87   89.90    7.76   82.14    0.00    0.00   0.892   0.146   0.045   0.021   0.009   0.004   0.083
 2008 137    28  10.80  34.10  23.50  2.922  0.685  2.232  1.715  0.685  1.030  0.000  0.000  144.79   91.62    8.44   83.17    0.00    0.00   0.807   0.144   0.044   0.021   0.009   0.004   0.069
 2008 138    29  17.10  32.00  24.60  4.533  1.185  3.341  4.187  0.846  3.341  0.000  0.000  149.33   95.80    9.29   86.51    0.00    0.00   0.779   0.680   0.584   0.571   0.430   0.297   0.085
 2008 139    30  21.80  33.00  24.00  5.987  1.634  4.341  5.975  1.634  4.341  0.000  0.000  155.31  101.78   10.92   90.86    0.00    0.00   1.127   0.855   0.730   0.709   0.531   0.390   0.163
 2008 140    31  14.80  34.00  24.70  4.065  1.247  2.811  4.057  1.247  2.811  0.000  0.000  159.38  105.84   12.17   93.67    0.00    0.00   0.686   0.552   0.472   0.471   0.356   0.273   0.125
 2008 141    32  21.10  33.80  21.90  5.633  1.923  3.697  3.256  1.923  1.333  0.000  0.000  165.01  109.09   14.09   95.00    0.00    0.00   1.093   0.156   0.048   0.022   0.009   0.005   0.192
 2008 142    33  22.80  34.00  24.60  6.160  2.310  3.836  3.527  2.310  1.218  0.000  0.000  171.17  112.62   16.40   96.22    0.00    0.00   0.982   0.152   0.047   0.022   0.009   0.005   0.231
 2008 143    34  20.00  31.70  25.00  5.255  2.123  3.117  3.232  2.115  1.117  0.000  0.000  176.43  115.85   18.52   97.33    0.00    0.00   0.886   0.149   0.046   0.022   0.009   0.005   0.211
 2008 144    35  22.80  31.50  25.10  5.945  2.584  3.340  3.957  2.584  1.374  0.000  0.000  182.37  119.81   21.10   98.71    0.00    0.00   1.137   0.155   0.046   0.021   0.009   0.005   0.258
 2008 145    36  13.50  32.60  25.40  3.625  1.666  1.943  3.610  1.666  1.943  0.000  0.000  186.00  123.42   22.77  100.65    0.00    0.00   0.549   0.378   0.306   0.299   0.231   0.181   0.167
 2008 146    37  13.00  33.10  26.30  3.509  1.732  1.765  3.497  1.732  1.765  0.000  0.000  189.51  126.92   24.50  102.42    0.00    0.00   0.469   0.347   0.290   0.277   0.214   0.168   0.173
 2008 147    38  20.90  30.30  26.00  5.427  2.844  2.564  4.268  2.844  1.424  0.000  0.000  194.93  131.18   27.34  103.84    0.00    0.00   1.186   0.156   0.047   0.021   0.009   0.005   0.284
 2008 148    39  23.10  31.10  23.90  5.914  3.288  2.607  5.895  3.288  2.607  0.000  0.000  200.85  137.08   30.63  106.45    0.00    0.00   0.671   0.526   0.445   0.414   0.311   0.240   0.329
 2008 149    40  12.20  31.00  25.10  3.166  1.828  1.325  3.153  1.828  1.325  0.000  0.000  204.01  140.23   32.46  107.77    0.00    0.00   0.361   0.269   0.224   0.206   0.152   0.114   0.183
 2008 150    41  19.80  31.00  21.20  4.985  3.006  1.963  4.969  3.006  1.963  0.000  0.000  209.00  145.20   35.47  109.73    0.00    0.00   0.513   0.387   0.325   0.317   0.239   0.182   0.301
 2008 151    42  11.20  32.90  25.50  2.938  1.866  1.065  2.931  1.866  1.065  0.000  0.000  211.94  148.13   37.33  110.80    0.00    0.00   0.271   0.207   0.176   0.175   0.133   0.103   0.187
 2008 152    43  15.70  32.50  25.40  4.085  2.670  1.401  4.072  2.670  1.401  0.000  0.000  216.02  152.20   40.00  112.20    0.00    0.00   1.165   0.154   0.047   0.022   0.009   0.005   0.267
 2008 153    44  19.10  30.30  25.10  4.821  3.269  1.531  4.566  3.269  1.296  0.000  0.000  220.84  156.77   43.27  113.50    0.00    0.00   1.060   0.153   0.047   0.022   0.009   0.005   0.327
 2008 154    45  22.80  29.50  25.00  5.674  3.997  1.647  5.645  3.997  1.647  0.000  0.000  226.52  162.41   47.27  115.14    0.00    0.00   0.397   0.321   0.276   0.277   0.212   0.164   0.400
 2008 155    46  10.50  33.60  24.60  2.732  1.991  0.727  2.718  1.991  0.727  0.000  0.000  229.25  165.13   49.26  115.87    0.00    0.00   0.187   0.140   0.119   0.119   0.091   0.070   0.199
 2008 156    47   9.60  29.60  24.60  2.387  1.767  0.611  2.378  1.767  0.611  0.000  0.000  231.64  167.51   51.03  116.48    0.00    0.00   0.156   0.118   0.100   0.101   0.077   0.059   0.177
 2008 157    48  23.10  30.50  25.00  5.805  4.342  1.440  5.782  4.342  1.440  0.000  0.000  237.44  173.29   55.37  117.92    0.00    0.00   0.383   0.276   0.233   0.233   0.178   0.138   0.434
 2008 158    49  11.90  33.00  25.10  3.070  2.342  0.714  3.055  2.342  0.714  0.000  0.000  240.51  176.35   57.71  118.64    0.00    0.00   0.188   0.137   0.116   0.115   0.088   0.069   0.234
 2008 159    50  13.20  31.90  23.70  3.327  2.553  0.750  3.303  2.553  0.750  0.000  0.000  243.84  179.65   60.26  119.39    0.00    0.00   0.194   0.144   0.123   0.122   0.094   0.073   0.255
 2008 160    51  22.60  31.40  25.00  5.710  4.429  1.246  5.675  4.429  1.246  0.000  0.000  249.55  185.32   64.69  120.63    0.00    0.00   1.040   0.134   0.041   0.019   0.008   0.004   0.443
 2008 161    52  17.70  32.60  24.50  4.499  3.542  0.932  4.474  3.542  0.932  0.000  0.000  254.05  189.80   68.23  121.56    0.00    0.00   0.766   0.107   0.033   0.015   0.007   0.003   0.354
 2008 162    53  17.20  33.50  23.80  4.383  3.484  0.873  4.357  3.484  0.873  0.000  0.000  258.43  194.16   71.72  122.44    0.00    0.00   0.710   0.105   0.032   0.015   0.007   0.003   0.348
 2008 163    54  20.70  28.70  25.80  5.079  4.073  0.975  5.023  4.048  0.975  0.000  0.000  263.51  199.18   75.77  123.41    0.00    0.00   0.785   0.123   0.038   0.018   0.008   0.004   0.405
 2008 164    55  21.30  30.80  22.60  5.216  4.219  0.961  4.486  3.525  0.961  0.000  0.000  268.72  203.66   79.29  124.37    0.00    0.00   0.802   0.104   0.031   0.014   0.006   0.003   0.352
 2008 165    56  11.90  31.90  23.60  2.984  2.426  0.541  2.967  2.426  0.541  0.000  0.000  271.71  206.63   81.72  124.91    0.00    0.00   0.148   0.104   0.085   0.086   0.066   0.051   0.243
 2008 166    57   9.60  32.50  21.90  2.393  1.956  0.424  2.380  1.956  0.424  0.000  0.000  274.10  209.01   83.67  125.34    0.00    0.00   0.108   0.082   0.070   0.070   0.053   0.041   0.196
 2008 167    58  20.00  29.00  22.40  4.822  3.955  0.839  4.794  3.955  0.839  0.000  0.000  278.92  213.80   87.63  126.18    0.00    0.00   0.219   0.159   0.136   0.136   0.106   0.083   0.395
 2008 168    59  16.50  27.50  24.30  3.962  3.266  0.665  3.931  3.266  0.665  0.000  0.000  282.89  217.74   90.89  126.84    0.00    0.00   0.170   0.127   0.109   0.109   0.084   0.065   0.327
 2008 169    60  10.80  28.50  22.10  2.575  2.133  0.419  2.553  2.133  0.419  0.000  0.000  285.46  220.29   93.03  127.26    0.00    0.00   0.108   0.080   0.068   0.069   0.053   0.041   0.213
 2008 170    61   9.60  32.00  23.90  2.406  2.003  0.384  2.388  2.003  0.384  0.000  0.000  287.87  222.68   95.03  127.64    0.00    0.00   0.099   0.074   0.063   0.063   0.049   0.037   0.200
 2008 171    62   9.60  31.30  24.50  2.397  2.007  0.377  2.384  2.007  0.377  0.000  0.000  290.26  225.06   97.04  128.02    0.00    0.00   0.096   0.072   0.062   0.062   0.048   0.037   0.201
 2008 172    63  20.20  32.00  22.40  5.004  4.198  0.773  4.972  4.198  0.773  0.000  0.000  295.27  230.03  101.24  128.79    0.00    0.00   0.644   0.084   0.026   0.012   0.005   0.003   0.420
 2008 173    64  19.20  31.40  25.00  4.806  4.052  0.717  4.769  4.052  0.717  0.000  0.000  300.08  234.80  105.29  129.51    0.00    0.00   0.592   0.081   0.025   0.012   0.005   0.003   0.405
 2008 174    65  18.70  30.10  24.80  4.607  3.909  0.664  4.573  3.909  0.664  0.000  0.000  304.68  239.37  109.20  130.18    0.00    0.00   0.545   0.078   0.024   0.011   0.005   0.003   0.391
 2008 175    66  18.70  30.20  23.00  4.549  3.880  0.635  4.514  3.880  0.635  0.000  0.000  309.23  243.89  113.08  130.81    0.00    0.00   0.519   0.075   0.023   0.011   0.005   0.002   0.388
 2008 176    67   9.90  31.80  24.60  2.475  2.124  0.334  2.458  2.124  0.334  0.000  0.000  311.71  246.35  115.20  131.14    0.00    0.00   0.280   0.035   0.011   0.005   0.002   0.001   0.212
 2008 177    68  16.10  32.90  22.80  4.030  3.469  0.535  4.004  3.469  0.535  0.000  0.000  315.74  250.35  118.67  131.68    0.00    0.00   0.152   0.102   0.082   0.084   0.065   0.051   0.347
 2008 178    69  13.30  31.50  24.80  3.323  2.880  0.428  3.308  2.880  0.428  0.000  0.000  319.06  253.66  121.55  132.11    0.00    0.00   0.361   0.045   0.013   0.006   0.003   0.001   0.288
 2008 179    70  15.40  31.00  25.10  3.833  3.333  0.482  3.816  3.333  0.482  0.000  0.000  322.89  257.47  124.88  132.59    0.00    0.00   0.405   0.051   0.015   0.007   0.003   0.002   0.333
 2008 180    71  13.40  30.40  25.50  3.326  2.856  0.454  3.310  2.856  0.454  0.000  0.000  326.22  260.78  127.74  133.04    0.00    0.00   0.384   0.047   0.013   0.006   0.003   0.001   0.286
 2008 181    72  19.10  31.00  23.30  4.704  4.025  0.649  4.675  4.025  0.649  0.000  0.000  330.92  265.46  131.76  133.69    0.00    0.00   0.182   0.124   0.099   0.102   0.079   0.062   0.403
 2008 182    73  10.10  32.30  22.50  2.505  2.140  0.349  2.490  2.140  0.349  0.000  0.000  333.43  267.95  133.90  134.04    0.00    0.00   0.292   0.037   0.011   0.005   0.002   0.001   0.214
 2008 183    74  11.20  32.00  22.50  2.769  2.366  0.390  2.756  2.366  0.390  0.000  0.000  336.20  270.70  136.27  134.43    0.00    0.00   0.330   0.040   0.012   0.005   0.002   0.001   0.237
 2008 184    75  14.80  31.50  23.40  3.668  3.128  0.522  3.650  3.128  0.522  0.000  0.000  339.86  274.35  139.40  134.95    0.00    0.00   0.445   0.050   0.015   0.007   0.003   0.002   0.313
 2008 185    76  20.10  31.50  22.70  4.952  4.213  0.712  2.717  2.005  0.712  0.000  0.000  344.82  277.07  141.40  135.67    0.00    0.00   0.204   0.144   0.109   0.107   0.083   0.065   0.201
 2008 186    77  18.50  30.00  23.30  4.524  3.809  0.684  4.493  3.809  0.684  0.000  0.000  349.34  281.56  145.21  136.35    0.00    0.00   0.197   0.143   0.108   0.099   0.077   0.060   0.381
 2008 187    78  16.90  27.70  22.50  3.999  3.363  0.605  3.968  3.363  0.605  0.000  0.000  353.34  285.53  148.58  136.96    0.00    0.00   0.509   0.064   0.019   0.008   0.003   0.002   0.336
 2008 188    79  13.40  30.40  22.70  3.267  2.744  0.498  3.243  2.744  0.498  0.000  0.000  356.61  288.77  151.32  137.45    0.00    0.00   0.414   0.055   0.017   0.007   0.003   0.002   0.274
 2008 189    80  12.10  30.40  22.20  2.938  2.460  0.450  2.722  2.272  0.450  0.000  0.000  359.54  291.50  153.59  137.90    0.00    0.00   0.373   0.051   0.016   0.007   0.003   0.002   0.227
 2008 190    81  13.90  30.50  21.70  3.366  2.819  0.520  2.367  1.848  0.520  0.000  0.000  362.91  293.86  155.44  138.42    0.00    0.00   0.428   0.060   0.018   0.008   0.003   0.002   0.185
 2008 191    82  11.30  30.40  22.30  2.745  2.288  0.438  2.015  1.577  0.438  0.000  0.000  365.65  295.88  157.02  138.86    0.00    0.00   0.358   0.052   0.016   0.007   0.003   0.002   0.158
 2008 192    83  15.50  32.10  21.90  3.824  3.170  0.627  1.993  1.366  0.627  0.000  0.000  369.48  297.87  158.38  139.49    0.00    0.00   0.511   0.076   0.023   0.010   0.005   0.002   0.137
 2008 193    84  19.00  32.20  22.00  4.697  3.858  0.811  2.042  1.231  0.811  0.000  0.000  374.18  299.91  159.61  140.30    0.00    0.00   0.655   0.102   0.031   0.014   0.006   0.003   0.123
 2008 194    85  19.10  32.00  22.70  4.737  3.836  0.868  1.988  1.120  0.868  0.000  0.000  378.91  301.90  160.73  141.17    0.00    0.00   0.692   0.114   0.035   0.016   0.007   0.004   0.112
 2008 195    86  18.60  30.20  23.00  4.537  3.622  0.883  1.910  1.027  0.883  0.000  0.000  383.45  303.81  161.76  142.05    0.00    0.00   0.692   0.123   0.038   0.017   0.008   0.004   0.103
 2008 196    87  16.90  31.00  23.20  4.164  3.274  0.859  1.808  0.949  0.859  0.000  0.000  387.61  305.62  162.71  142.91    0.00    0.00   0.713   0.099   0.027   0.012   0.005   0.003   0.095
 2008 197    88   9.80  32.10  23.30  2.471  1.914  0.539  2.453  1.914  0.539  0.000  0.000  390.09  308.07  164.62  143.45    0.00    0.00   0.158   0.116   0.085   0.076   0.059   0.046   0.191
 2008 198    89  20.50  31.00  22.30  5.063  3.920  1.105  5.025  3.920  1.105  0.000  0.000  395.15  313.10  168.54  144.55    0.00    0.00   0.314   0.232   0.182   0.158   0.123   0.097   0.392
 2008 199    90  18.10  31.00  23.00  4.484  3.477  0.979  3.307  2.329  0.979  0.000  0.000  399.63  316.41  170.87  145.53    0.00    0.00   0.286   0.204   0.160   0.137   0.107   0.084   0.233
 2008 200    91  11.20  28.00  22.80  2.696  2.079  0.603  2.682  2.079  0.603  0.000  0.000  402.33  319.09  172.95  146.14    0.00    0.00   0.177   0.128   0.100   0.083   0.065   0.051   0.208
 2008 201    92  16.40  31.10  23.10  4.081  3.141  0.913  4.055  3.141  0.913  0.000  0.000  406.41  323.14  176.09  147.05    0.00    0.00   0.268   0.190   0.155   0.126   0.098   0.077   0.314
 2008 202    93  11.30  25.90  22.00  2.637  2.025  0.590  2.616  2.025  0.590  0.000  0.000  409.05  325.76  178.12  147.64    0.00    0.00   0.179   0.122   0.098   0.079   0.062   0.049   0.203
 2008 203    94  15.40  31.20  23.10  3.844  2.966  0.860  3.826  2.966  0.860  0.000  0.000  412.89  329.58  181.08  148.50    0.00    0.00   0.261   0.186   0.145   0.114   0.086   0.068   0.297
 2008 204    95  10.80  31.00  23.00  2.687  2.070  0.601  2.671  2.070  0.601  0.000  0.000  415.58  332.26  183.15  149.10    0.00    0.00   0.169   0.128   0.106   0.087   0.062   0.049   0.207
 2008 205    96  17.70  32.20  22.60  4.440  3.414  0.994  4.408  3.414  0.994  0.000  0.000  420.02  336.66  186.57  150.09    0.00    0.00   0.274   0.209   0.173   0.151   0.104   0.082   0.341
 2008 206    97  19.10  30.20  22.80  4.693  3.615  1.050  4.665  3.615  1.050  0.000  0.000  424.71  341.33  190.18  151.15    0.00    0.00   0.877   0.116   0.035   0.014   0.006   0.003   0.362
 2008 207    98  13.60  28.20  23.30  3.280  2.500  0.762  3.263  2.500  0.762  0.000  0.000  427.99  344.59  192.68  151.91    0.00    0.00   0.205   0.159   0.136   0.123   0.080   0.060   0.250
 2008 208    99  12.10  31.50  22.80  3.034  2.274  0.738  3.012  2.274  0.738  0.000  0.000  431.02  347.60  194.96  152.65    0.00    0.00   0.202   0.151   0.129   0.123   0.078   0.055   0.227
 2008 209   100  10.60  31.20  22.40  2.641  1.944  0.677  2.621  1.944  0.677  0.000  0.000  433.66  350.22  196.90  153.32    0.00    0.00   0.179   0.136   0.116   0.114   0.080   0.052   0.194
 2008 210   101  17.30  30.50  22.10  4.272  3.088  1.158  4.246  3.088  1.158  0.000  0.000  437.94  354.47  199.99  154.48    0.00    0.00   0.302   0.230   0.198   0.196   0.142   0.090   0.309
 2008 211   102  15.80  28.00  22.20  3.804  2.688  1.092  3.780  2.688  1.092  0.000  0.000  441.74  358.25  202.68  155.57    0.00    0.00   0.296   0.223   0.183   0.178   0.130   0.082   0.269
 2008 212   103  12.20  30.20  22.20  3.029  2.090  0.921  3.011  2.090  0.921  0.000  0.000  444.77  361.26  204.77  156.49    0.00    0.00   0.248   0.187   0.153   0.151   0.112   0.071   0.209
 2008 213   104  15.30  30.00  21.60  3.773  2.526  1.223  3.749  2.526  1.223  0.000  0.000  448.54  365.01  207.29  157.72    0.00    0.00   0.328   0.243   0.202   0.201   0.152   0.097   0.253
 2008 214   105  14.20  28.50  21.90  3.463  2.242  1.200  3.442  2.242  1.200  0.000  0.000  452.01  368.45  209.53  158.92    0.00    0.00   0.316   0.236   0.200   0.200   0.151   0.097   0.224
 2008 215   106  18.60  31.00  23.00  4.703  2.930  1.744  4.352  2.930  1.422  0.000  0.000  456.71  372.80  212.46  160.34    0.00    0.00   1.184   0.156   0.047   0.022   0.009   0.004   0.293
 2008 216   107  10.00  32.00  23.00  2.556  1.518  1.026  2.543  1.518  1.026  0.000  0.000  459.27  375.35  213.98  161.37    0.00    0.00   0.840   0.121   0.037   0.017   0.007   0.003   0.152
 2008 217   108  15.10  30.50  22.40  3.791  2.116  1.657  3.314  2.116  1.198  0.000  0.000  463.06  378.66  216.10  162.56    0.00    0.00   0.968   0.149   0.046   0.021   0.009   0.004   0.212
 2008 218   109  18.50  30.30  22.40  4.623  2.583  2.021  3.673  2.574  1.100  0.000  0.000  467.68  382.33  218.67  163.66    0.00    0.00   0.874   0.146   0.045   0.021   0.009   0.004   0.257
 2008 219   110  12.90  28.00  21.80  3.124  1.743  1.366  2.756  1.743  1.012  0.000  0.000  470.80  385.09  220.41  164.68    0.00    0.00   0.791   0.143   0.044   0.021   0.009   0.004   0.174
 2008 220   111  13.60  29.50  22.00  3.345  1.865  1.463  2.956  1.865  1.091  0.000  0.000  474.15  388.05  222.28  165.77    0.00    0.00   0.873   0.141   0.044   0.021   0.009   0.004   0.187
 2008 221   112  15.10  32.00  22.30  3.847  2.145  1.682  3.306  2.145  1.162  0.000  0.000  478.00  391.35  224.42  166.93    0.00    0.00   0.947   0.139   0.043   0.020   0.009   0.004   0.214
 2008 222   113  10.50  32.50  22.80  2.692  1.503  1.177  2.560  1.495  1.065  0.000  0.000  480.69  393.91  225.92  167.99    0.00    0.00   0.854   0.136   0.043   0.020   0.009   0.004   0.149
 2008 223   114  20.90  31.50  22.90  5.294  2.959  2.314  3.941  2.959  0.981  0.000  0.000  485.98  397.85  228.88  168.97    0.00    0.00   0.773   0.134   0.042   0.020   0.009   0.004   0.296
 2008 224   115  21.70  29.00  22.50  5.326  2.975  2.328  3.416  2.512  0.904  0.000  0.000  491.31  401.27  231.39  169.88    0.00    0.00   0.699   0.132   0.041   0.020   0.008   0.004   0.251
 2008 225   116  19.30  32.00  22.70  4.889  2.725  2.137  2.921  2.088  0.834  0.000  0.000  496.20  404.19  233.48  170.71    0.00    0.00   0.633   0.129   0.041   0.019   0.008   0.004   0.209
 2008 226   117  10.60  29.10  23.10  2.607  1.454  1.140  2.225  1.454  0.771  0.000  0.000  498.80  406.41  234.93  171.48    0.00    0.00   0.572   0.127   0.040   0.019   0.008   0.004   0.145
 2008 227   118  19.00  30.00  23.10  4.711  2.630  2.059  2.320  1.606  0.714  0.000  0.000  503.51  408.73  236.54  172.20    0.00    0.00   0.518   0.125   0.040   0.019   0.008   0.004   0.161
 2008 228   119  10.00  29.60  22.40  2.453  1.368  1.072  2.064  1.368  0.695  0.000  0.000  505.97  410.80  237.91  172.89    0.00    0.00   0.502   0.124   0.039   0.019   0.008   0.004   0.137
 2008 229   120  13.40  30.00  22.10  3.296  1.834  1.441  1.970  1.291  0.679  0.000  0.000  509.26  412.77  239.20  173.57    0.00    0.00   0.487   0.122   0.039   0.018   0.008   0.004   0.129
 2008 230   121  13.50  32.00  22.90  3.406  1.897  1.489  1.805  1.174  0.630  0.000  0.000  512.67  414.57  240.37  174.20    0.00    0.00   0.441   0.121   0.038   0.018   0.008   0.004   0.117
 2008 231   122  18.10  31.50  22.10  4.513  2.518  1.973  1.664  1.077  0.587  0.000  0.000  517.18  416.24  241.45  174.79    0.00    0.00   0.399   0.119   0.038   0.018   0.008   0.004   0.108
 2008 232   123  22.60  32.20  22.60  5.690  3.175  2.488  1.542  0.995  0.547  0.000  0.000  522.87  417.78  242.44  175.33    0.00    0.00   0.361   0.118   0.038   0.018   0.008   0.004   0.100
 2008 233   124  18.10  30.20  22.40  4.451  2.485  1.946  1.578  0.925  0.654  0.000  0.000  527.32  419.36  243.37  175.99    0.00    0.00   0.469   0.117   0.037   0.018   0.008   0.004   0.092
 2008 234   125  19.00  31.00  22.70  4.754  2.655  2.078  1.614  0.864  0.750  0.000  0.000  532.08  420.97  244.23  176.74    0.00    0.00   0.568   0.116   0.037   0.018   0.008   0.004   0.086
 2008 235   126  16.10  30.20  22.20  3.974  2.213  1.737  1.505  0.810  0.695  0.000  0.000  536.05  422.48  245.04  177.43    0.00    0.00   0.514   0.115   0.037   0.018   0.008   0.004   0.081
 2008 236   127  20.90  31.80  22.30  5.244  2.923  2.293  1.407  0.763  0.644  0.000  0.000  541.30  423.88  245.81  178.08    0.00    0.00   0.465   0.114   0.037   0.018   0.008   0.004   0.076
 2008 237   128  21.70  31.20  22.60  5.415  3.034  2.367  1.538  0.720  0.818  0.000  0.000  546.71  425.42  246.53  178.89    0.00    0.00   0.639   0.113   0.037   0.018   0.008   0.004   0.072
 2008 238   129  14.60  32.80  22.70  3.746  2.100  1.638  1.657  0.683  0.974  0.000  0.000  550.46  427.08  247.21  179.87    0.00    0.00   0.797   0.112   0.036   0.017   0.008   0.004   0.068
 2008 239   130  21.90  30.40  23.20  5.487  3.063  2.399  1.507  0.610  0.897  0.000  0.000  555.94  428.58  247.82  180.77    0.00    0.00   0.722   0.111   0.036   0.017   0.008   0.004   0.061
 2008 240   131  20.20  28.00  23.30  4.927  2.750  2.154  1.793  0.582  1.211  0.000  0.000  560.87  430.38  248.40  181.98    0.00    0.00   1.030   0.117   0.036   0.017   0.008   0.004   0.058
 2008 241   132  12.50  30.00  22.30  3.148  1.759  1.376  3.136  1.759  1.376  0.000  0.000  564.02  433.51  250.16  183.35    0.00    0.00   0.444   0.273   0.196   0.196   0.152   0.114   0.176
 2008 242   133  10.50  31.00  22.60  2.678  1.493  1.171  2.663  1.493  1.171  0.000  0.000  566.70  436.18  251.65  184.52    0.00    0.00   0.361   0.259   0.173   0.160   0.124   0.093   0.149
 2008 243   134  12.60  31.10  23.10  3.236  1.809  1.415  3.224  1.809  1.415  0.000  0.000  569.93  439.40  253.46  185.94    0.00    0.00   0.418   0.305   0.228   0.196   0.153   0.115   0.181
 2008 244   135  13.30  30.00  22.40  3.343  1.868  1.461  3.329  1.868  1.461  0.000  0.000  573.27  442.73  255.33  187.40    0.00    0.00   0.425   0.316   0.253   0.206   0.150   0.112   0.187
 2008 245   136  17.50  30.50  22.40  4.443  2.482  1.942  4.424  2.482  1.942  0.000  0.000  577.72  447.15  257.81  189.34    0.00    0.00   0.549   0.412   0.348   0.293   0.194   0.146   0.248
 2008 246   137  14.10  29.80  22.60  3.545  1.978  1.550  3.528  1.978  1.550  0.000  0.000  581.26  450.68  259.79  190.89    0.00    0.00   0.439   0.320   0.271   0.247   0.155   0.117   0.198
 2008 247   138  12.50  30.20  23.00  3.173  1.773  1.387  3.160  1.773  1.387  0.000  0.000  584.44  453.84  261.56  192.28    0.00    0.00   0.386   0.285   0.241   0.228   0.141   0.106   0.177
 2008 248   139  11.30  31.00  23.20  2.886  1.615  1.262  2.877  1.615  1.262  0.000  0.000  587.32  456.72  263.18  193.54    0.00    0.00   1.055   0.137   0.042   0.018   0.006   0.003   0.161
 2008 249   140  15.50  32.50  22.80  3.998  2.232  1.748  3.542  2.232  1.310  0.000  0.000  591.32  460.26  265.41  194.85    0.00    0.00   1.080   0.152   0.047   0.021   0.007   0.004   0.223
 2008 250   141  11.20  32.00  22.50  2.859  1.600  1.250  2.792  1.600  1.193  0.000  0.000  594.18  463.05  267.01  196.04    0.00    0.00   0.968   0.148   0.045   0.021   0.007   0.004   0.160
 2008 251   142  15.60  32.10  22.50  3.976  2.222  1.738  3.302  2.208  1.094  0.000  0.000  598.16  466.35  269.22  197.14    0.00    0.00   0.874   0.144   0.045   0.020   0.007   0.004   0.221
 2008 252   143  20.30  31.70  22.50  5.141  2.867  2.247  3.873  2.867  1.006  0.000  0.000  603.30  470.23  272.08  198.14    0.00    0.00   0.790   0.141   0.043   0.020   0.007   0.004   0.287
 2008 253   144  20.60  32.00  22.90  5.237  2.929  2.290  3.039  2.115  0.924  0.000  0.000  608.53  473.27  274.20  199.07    0.00    0.00   0.715   0.136   0.042   0.020   0.007   0.004   0.212
 2008 254   145  14.90  33.00  21.80  3.792  2.118  1.658  2.538  1.687  0.852  0.000  0.000  612.32  475.80  275.89  199.92    0.00    0.00   0.647   0.133   0.041   0.019   0.007   0.004   0.169
 2008 255   146  15.10  32.10  22.50  3.819  2.128  1.669  2.200  1.414  0.786  0.000  0.000  616.14  478.00  277.30  200.71    0.00    0.00   0.586   0.130   0.041   0.019   0.007   0.004   0.141
 2008 256   147  18.20  32.00  22.40  4.588  2.561  2.006  1.950  1.223  0.728  0.000  0.000  620.73  479.95  278.52  201.43    0.00    0.00   0.530   0.128   0.040   0.019   0.007   0.004   0.122
