*GROWTH ASPECTS OUTPUT FILE

*DSSAT Cropping System Model Ver. 4.7.2.000 -release      OCT 15, 2021; 17:59:33
                                                                                
*RUN   1        :             CSM335_date_1 MZCER047 ITSA1301    1              
 MODEL          : MZCER047 - Maize                                              
 EXPERIMENT     : ITSA1301 SG CALIBRATION SETUP OF SORGHUM SOWING DATES         
 DATA PATH      :                                                               
 TREATMENT  1   :             CSM335_date_1 MZCER047                            
  
!                                                                                                                                                                                                                                      Root Dens. (cm/cm3) by soil depth (cm):
!                                                                                                                                                                                                                                      0-5    5-15   15-30   30-53   53-77  77-100
@YEAR DOY   DAS   DAP   L#SD   GSTD   LAID   LWAD   SWAD   GWAD   RWAD   VWAD   CWAD   G#AD   GWGD   HIAD   PWAD   P#AD   WSPD   WSGD   NSTD   EWSD  PST1A  PST2A   KSTD   LN%D   SH%D   HIPD   PWDD   PWTD     SLAD   CHTD   CWID   RDPD    RL1D    RL2D    RL3D    RL4D    RL5D    RL6D   CDAD   LDAD   SDAD   SNW0C   SNW1C  DTTD
 2008 111     2     0    0.0      0   0.00      0      0      0      0      0      0      0    0.0  0.000      0      0  0.000  0.000  0.000  0.000  0.000  0.000  0.000   0.00   0.00   0.00      0      0      0.0   0.00   0.00   0.03    0.00    0.00    0.00    0.00    0.00    0.00      0      0      0       0       0 23.72
 2008 112     3     1    0.0      0   0.00      0      0      0      0      0      0      0    0.0  0.000      0      0  0.000  0.000  0.000  0.000  0.000  0.000  0.000   0.00   0.00   0.00      0      0      0.0   0.00   0.00   0.06    0.00    0.00    0.00    0.00    0.00    0.00      0      0      0       0       0 21.65
 2008 113     4     2    0.0      0   0.00      0      0      0      0      0      0      0    0.0  0.000      0      0  0.000  0.000  0.000  0.000  0.000  0.000  0.000   0.00   0.00   0.00      0      0      0.0   0.00   0.00   0.10    0.00    0.00    0.00    0.00    0.00    0.00      0      0      0       0       0 22.28
 2008 114     5     3    0.0      0   0.00      0      0      0      0      0      0      0    0.0  0.000      0      0  0.000  0.000  0.000  0.000  0.000  0.000  0.000   0.00   0.00   0.00      0      0      0.0   0.00   0.00   0.13    0.00    0.00    0.00    0.00    0.00    0.00      0      0      0       0       0 20.40
 2008 115     6     4    1.0      1   0.00     18     18      0     18     35     35      0    0.0  0.000      0      0  0.000  0.000  0.012  0.000  0.000  0.000  0.000   4.40   0.00   0.00      0      0     21.3   0.00   0.00   0.15    0.35    0.13    0.00    0.00    0.00    0.00      0      0      0       0       0 22.81
 2008 116     7     5    2.0      1   0.01     18     18      0     18     35     35      0    0.0  0.000      0      0  0.000  0.000  0.015  0.000  0.000  0.000  0.000   4.40   0.00   0.00      0      0     37.9   0.00   0.00   0.17    0.35    0.14    0.00    0.00    0.00    0.00      0      0      0       0       0 20.53
 2008 117     8     6    2.0      1   0.01     18     18      0     18     35     35      0    0.0  0.000      0      0  0.000  0.000  0.009  0.000  0.000  0.000  0.000   4.40   0.00   0.00      0      0     57.0   0.00   0.00   0.19    0.35    0.14    0.00    0.00    0.00    0.00      0      0      0       0       0 21.03
 2008 118     9     7    3.0      1   0.01     18     18      0     19     35     35      0    0.0  0.000      0      0  0.000  0.000  0.003  0.000  0.000  0.000  0.000   4.40   0.00   0.00      0      0     78.3   0.01   0.00   0.21    0.35    0.15    0.00    0.00    0.00    0.00      0      0      0       0       0 21.32
 2008 119    10     8    3.0      1   0.02     18     18      0     20     35     35      0    0.0  0.000      0      0  0.000  0.000  0.000  0.000  0.000  0.000  0.000   4.40   0.00   0.00      0      0    102.2   0.01   0.00   0.23    0.36    0.15    0.01    0.00    0.00    0.00      0      0      0       0       0 22.03
 2008 120    11     9    3.0      1   0.02     18     18      0     21     35     35      0    0.0  0.000      0      0  0.000  0.000  0.000  0.000  0.000  0.000  0.000   4.40   0.00   0.00      0      0    128.1   0.01   0.00   0.26    0.37    0.16    0.01    0.00    0.00    0.00      0      0      0       0       0 22.38
 2008 121    12    10    4.0      1   0.04     18     18      0     23     35     35      0    0.0  0.000      0      0  0.000  0.000  0.000  0.000  0.000  0.000  0.000   4.40   0.00   0.00      0      0    211.2   0.01   0.00   0.28    0.38    0.17    0.03    0.00    0.00    0.00      0      0      0       0       0 22.20
 2008 122    13    11    4.0      1   0.05     18     18      0     26     35     35      0    0.0  0.000      0      0  0.000  0.257  0.000  0.000  0.000  0.000  0.000   4.40   0.00   0.00      0      0    272.5   0.02   0.00   0.30    0.39    0.20    0.05    0.00    0.00    0.00      0      0      0       0       0 19.72
 2008 123    14    12    4.0      1   0.06     19     18      0     29     37     37      0    0.0  0.000      0      0  0.000  0.000  0.000  0.000  0.000  0.000  0.000   4.21   0.00   0.00      0      0    335.9   0.03   0.00   0.32    0.40    0.21    0.07    0.00    0.00    0.00      0      0      0       0       0 21.22
 2008 124    15    13    4.0      1   0.08     27     18      0     29     44     44      0    0.0  0.000      0      0  0.000  0.000  0.000  0.000  0.000  0.000  0.000   3.49   0.00   0.00      0      0    313.6   0.03   0.00   0.34    0.41    0.21    0.07    0.00    0.00    0.00      0      0      0       0       0 21.96
 2008 125    16    14    5.0      1   0.10     34     18      0     33     51     51      0    0.0  0.000      0      0  0.000  0.224  0.000  0.000  0.000  0.000  0.000   3.54   0.00   0.00      0      0    298.8   0.04   0.00   0.39    0.42    0.23    0.10    0.01    0.00    0.00      0      0      0       0       0 22.37
 2008 126    17    15    5.0      1   0.12     44     18      0     34     61     61      0    0.0  0.000      0      0  0.000  0.000  0.000  0.000  0.000  0.000  0.000   3.40   0.00   0.00      0      0    283.2   0.05   0.00   0.43    0.42    0.24    0.10    0.01    0.00    0.00      0      0      0       0       0 21.59
 2008 127    18    16    5.0      1   0.15     56     18      0     36     74     74      0    0.0  0.000      0      0  0.000  0.000  0.000  0.000  0.000  0.000  0.000   3.34   0.00   0.00      0      0    269.1   0.06   0.00   0.48    0.43    0.24    0.11    0.01    0.00    0.00      0      0      0       0       0 23.03
 2008 128    19    17    6.0      1   0.18     68     18      0     42     86     86      0    0.0  0.000      0      0  0.000  0.000  0.000  0.000  0.000  0.000  0.000   3.40   0.00   0.00      0      0    258.1   0.07   0.00   0.52    0.45    0.27    0.13    0.03    0.00    0.00      0      0      0       0       1 20.84
 2008 129    20    18    6.0      1   0.19     75     18      0     49     93     93      0    0.0  0.000      0      0  0.272  0.515  0.000  0.000  0.000  0.000  0.000   3.62   0.00   0.00      0      0    250.3   0.07   0.00   0.56    0.48    0.29    0.16    0.05    0.00    0.00      0      0      0       0       1 22.50
 2008 130    21    19    6.0      2   0.22     82     18      0     56    100    100      0    0.0  0.000      0      0  0.000  0.282  0.000  0.000  0.000  0.000  0.000   3.62   0.00   0.00      0      0    264.5   0.09   0.00   0.61    0.48    0.32    0.20    0.08    0.01    0.00      0      0      0       0       1 22.29
 2008 131    22    20    6.0      2   0.23     92     18      0     65    109    109      0    0.0  0.000      0      0  0.275  0.517  0.002  0.000  0.000  0.000  0.000   3.56   0.00   0.00      0      0    256.2   0.09   0.00   0.65    0.52    0.35    0.22    0.10    0.02    0.00      0      0      0       0       1 22.03
 2008 132    23    21    7.0      2   0.28    113     18      0     69    131    131      0    0.0  0.000      0      0  0.000  0.000  0.000  0.000  0.000  0.000  0.000   3.19   0.00   0.00      0      0    247.4   0.11   0.00   0.69    0.53    0.36    0.24    0.11    0.02    0.00      0      0      0       0       2 21.81
 2008 133    24    22    7.0      2   0.30    126     18      0     81    143    143      0    0.0  0.000      0      0  0.184  0.456  0.000  0.000  0.000  0.000  0.000   3.89   0.00   0.00      0      0    240.9   0.12   0.00   0.74    0.58    0.40    0.28    0.13    0.04    0.00      0      0      0       0       2 20.78
 2008 134    25    23    7.0      2   0.34    147     18      0     85    165    165      0    0.0  0.000      0      0  0.000  0.121  0.000  0.000  0.000  0.000  0.000   3.74   0.00   0.00      0      0    234.1   0.14   0.00   0.78    0.60    0.41    0.29    0.14    0.05    0.00      0      0      0       0       2 21.48
 2008 135    26    24    8.0      3   0.37    165     18      0     94    182    182      0    0.0  0.000      0      0  0.046  0.365  0.000  0.000  0.000  0.000  0.000   3.63   0.00   0.00      0      0    226.1   0.15   0.00   0.82    0.61    0.44    0.32    0.16    0.07    0.00      0      0      0       0       3 20.84
 2008 136    27    25    8.0      3   0.39    179     18      0    106    197    197      0    0.0  0.000      0      0  0.314  0.543  0.000  0.000  0.000  0.000  0.000   3.67   0.00   0.00      0      0    219.4   0.15   0.00   0.86    0.61    0.47    0.35    0.19    0.10    0.01      0      0      0       0       3 21.52
 2008 137    28    26    8.0      3   0.45    208     18      0    107    226    226      0    0.0  0.000      0      0  0.000  0.123  0.000  0.000  0.000  0.000  0.000   3.51   0.00   0.00      0      0    214.3   0.17   0.00   0.91    0.61    0.48    0.36    0.19    0.10    0.01      0      0      0       0       4 21.16
 2008 138    29    27    8.0      3   0.47    225     18      0    118    243    243      0    0.0  0.000      0      0  0.287  0.525  0.000  0.000  0.000  0.000  0.000   3.57   0.00   0.00      0      0    208.6   0.18   0.00   0.95    0.64    0.51    0.38    0.21    0.12    0.03      0      0      0       0       4 20.80
 2008 139    30    28    9.0      3   0.54    265     20      0    135    284    284      0    0.0  0.000      0      0  0.000  0.000  0.000  0.000  0.000  0.000  0.000   3.43   0.00   0.00      0      0    203.4   0.21   0.00   0.99    0.69    0.56    0.42    0.24    0.14    0.05      0      0      0       0       5 21.33
 2008 140    31    29    9.0      3   0.61    310     22      0    140    332    332      0    0.0  0.000      0      0  0.000  0.000  0.000  0.000  0.000  0.000  0.000   3.39   0.00   0.00      0      0    198.4   0.24   0.00   1.00    0.70    0.57    0.43    0.25    0.15    0.05      0      0      0       0       6 21.87
 2008 141    32    30    9.0      3   0.69    357     25      0    160    382    382      0    0.0  0.000      0      0  0.000  0.000  0.000  0.000  0.000  0.000  0.000   3.35   0.00   0.00      0      0    193.8   0.27   0.00   1.00    0.76    0.63    0.48    0.29    0.18    0.09      0      0      0       0       6 20.91
 2008 142    33    31   10.0      3   0.76    401     29      0    190    430    430      0    0.0  0.000      0      0  0.000  0.179  0.000  0.000  0.000  0.000  0.000   3.31   0.00   0.00      0      0    190.0   0.30   0.00   1.00    0.79    0.72    0.56    0.35    0.23    0.13      0      0      0       0       7 22.22
 2008 143    34    32   10.0      3   0.84    452     35      0    213    486    486      0    0.0  0.000      0      0  0.000  0.079  0.000  0.000  0.000  0.000  0.000   3.27   0.00   0.00      0      0    186.2   0.33   0.00   1.00    0.79    0.79    0.62    0.40    0.27    0.17      0      0      0       0       8 20.91
 2008 144    35    33   10.0      3   0.91    497     41      0    251    537    537      0    0.0  0.000      0      0  0.000  0.248  0.000  0.000  0.000  0.000  0.000   3.23   0.00   0.00      0      0    183.1   0.36   0.00   1.00    0.90    0.90    0.71    0.47    0.33    0.22      0      0      0       0       9 20.93
 2008 145    36    34   10.0      3   1.00    559     51      0    253    610    610      0    0.0  0.000      0      0  0.000  0.000  0.000  0.000  0.000  0.000  0.000   3.19   0.00   0.00      0      0    179.4   0.39   0.00   1.00    0.91    0.90    0.72    0.47    0.33    0.23      0      0      0       0      10 21.35
 2008 146    37    35   11.0      3   1.09    621     63      0    256    685    685      0    0.0  0.000      0      0  0.000  0.000  0.000  0.000  0.000  0.000  0.000   3.16   0.00   0.00      0      0    176.0   0.43   0.00   1.00    0.92    0.91    0.73    0.48    0.34    0.23      0      0      0       0      12 22.01
 2008 147    38    36   11.0      3   1.20    692     79      0    283    772    772      0    0.0  0.000      0      0  0.000  0.000  0.000  0.000  0.000  0.000  0.000   3.12   0.00   0.00      0      0    172.6   0.47   0.00   1.00    1.00    0.99    0.79    0.53    0.38    0.27      0      0      0       0      13 20.15
 2008 148    39    37   11.0      3   1.27    747     94      0    331    840    840      0    0.0  0.000      0      0  0.000  0.256  0.000  0.000  0.000  0.000  0.000   3.09   0.00   0.00      0      0    170.3   0.50   0.00   1.00    1.11    1.12    0.92    0.62    0.45    0.34      0      0      0       0      14 19.50
 2008 149    40    38   11.0      3   1.36    811    113      0    334    923    923      0    0.0  0.000      0      0  0.000  0.000  0.000  0.000  0.000  0.000  0.000   3.05   0.00   0.00      0      0    167.7   0.53   0.00   1.00    1.11    1.13    0.93    0.63    0.46    0.34      0      0      0       0      16 20.05
 2008 150    41    39   12.0      3   1.48    899    142      0    351   1041   1041      0    0.0  0.000      0      0  0.000  0.000  0.000  0.000  0.000  0.000  0.000   3.02   0.00   0.00      0      0    164.6   0.58   0.00   1.00    1.15    1.17    0.98    0.66    0.48    0.36      0      0      0       0      18 18.10
 2008 151    42    40   12.0      3   1.56    960    165      0    354   1125   1125      0    0.0  0.000      0      0  0.000  0.000  0.000  0.000  0.000  0.000  0.000   2.99   0.00   0.00      0      0    162.6   0.61   0.00   1.00    1.16    1.18    0.98    0.67    0.49    0.37      0      0      0       0      20 21.20
 2008 152    43    41   12.0      3   1.67   1046    202      0    359   1247   1247      0    0.0  0.000      0      0  0.000  0.000  0.000  0.000  0.000  0.000  0.000   2.95   0.00   0.00      0      0    160.0   0.66   0.00   1.00    1.17    1.19    1.00    0.68    0.50    0.38      0      0      0       0      21 20.95
 2008 153    44    42   12.0      3   1.80   1147    249      0    369   1396   1396      0    0.0  0.000      0      0  0.000  0.000  0.000  0.000  0.000  0.000  0.000   2.92   0.00   0.00      0      0    157.3   0.71   0.00   1.00    1.19    1.22    1.02    0.70    0.51    0.39      0      0      0       0      23 19.70
 2008 154    45    43   13.0      3   1.93   1248    301      0    397   1549   1549      0    0.0  0.000      0      0  0.000  0.000  0.000  0.000  0.000  0.000  0.000   2.89   0.00   0.00      0      0    154.8   0.76   0.00   1.00    1.21    1.26    1.09    0.76    0.57    0.44      0      0      0       0      25 19.25
 2008 155    46    44   13.0      3   1.99   1294    347      0    400   1641   1641      0    0.0  0.000      0      0  0.000  0.000  0.000  0.000  0.000  0.000  0.000   2.86   0.00   0.00      0      0    153.8   0.78   0.00   1.00    1.21    1.27    1.09    0.77    0.57    0.44      0      0      0       0      27 21.10
 2008 156    47    45   13.0      3   2.03   1329    397      0    403   1726   1726      0    0.0  0.000      0      0  0.000  0.000  0.000  0.000  0.000  0.000  0.000   2.83   0.00   0.00      0      0    153.0   0.80   0.00   1.00    1.21    1.27    1.10    0.78    0.58    0.45      0      0      0       0      29 19.10
 2008 157    48    46   13.0      3   2.13   1406    528      0    413   1934   1934      0    0.0  0.000      0      0  0.000  0.000  0.000  0.000  0.000  0.000  0.000   2.79   0.00   0.00      0      0    151.4   0.84   0.00   1.00    1.22    1.28    1.12    0.80    0.60    0.47      0      0      0       0      31 19.75
 2008 158    49    47   14.0      3   2.17   1443    600      0    417   2043   2043      0    0.0  0.000      0      0  0.000  0.000  0.000  0.000  0.000  0.000  0.000   2.76   0.00   0.00      0      0    150.6   0.85   0.00   1.00    1.24    1.29    1.13    0.80    0.61    0.47      0      0      0       0      33 21.05
 2008 159    50    48   14.0      3   2.22   1482    684      0    421   2166   2166      0    0.0  0.000      0      0  0.000  0.000  0.000  0.000  0.000  0.000  0.000   2.73   0.00   0.00      0      0    149.9   0.87   0.00   1.00    1.25    1.29    1.14    0.81    0.62    0.48      0      0      0       0      35 19.80
 2008 160    51    49   14.0      3   2.30   1545    834      0    431   2378   2378      0    0.0  0.000      0      0  0.000  0.000  0.000  0.000  0.000  0.000  0.000   2.70   0.00   0.00      0      0    148.7   0.90   0.00   1.00    1.29    1.31    1.16    0.83    0.63    0.50      0      0      0       0      37 20.20
 2008 161    52    50   14.0      3   2.35   1592    955      0    438   2547   2547      0    0.0  0.000      0      0  0.000  0.000  0.000  0.000  0.000  0.000  0.000   2.67   0.00   0.00      0      0    147.8   0.93   0.00   1.00    1.31    1.32    1.18    0.85    0.65    0.51      0      0      0       0      39 20.55
 2008 162    53    51   15.0      3   2.41   1637   1076      0    445   2713   2713      0    0.0  0.000      0      0  0.000  0.000  0.000  0.000  0.000  0.000  0.000   2.64   0.00   0.00      0      0    147.1   0.95   0.00   1.00    1.32    1.33    1.19    0.86    0.66    0.52      0      0      0       0      42 20.65
 2008 163    54    52   15.0      3   2.47   1688   1222      0    457   2910   2910      0    0.0  0.000      0      0  0.000  0.278  0.000  0.000  0.000  0.000  0.000   2.61   0.00   0.00      0      0    146.2   0.97   0.00   1.00    1.32    1.36    1.22    0.88    0.68    0.54      0      0      0       0      44 19.25
 2008 164    55    53   15.0      3   2.49   1725   1331      0    479   3056   3056      0    0.0  0.000      0      0  0.164  0.443  0.000  0.000  0.000  0.000  0.000   2.61   0.00   0.00      0      0    144.4   0.98   0.00   1.00    1.40    1.41    1.27    0.92    0.72    0.57      0      0      0       0      46 18.70
 2008 165    56    54   15.0      3   2.52   1753   1420      0    483   3173   3174      0    0.0  0.000      1      0  0.000  0.000  0.000  0.000  0.000  0.000  0.000   2.56   0.00   0.00      0      1    144.0   0.99   0.00   1.00    1.41    1.42    1.28    0.93    0.73    0.58      0      0      0       0      48 19.75
 2008 166    57    55   16.0      3   2.55   1776   1492      0    486   3268   3269      0    0.0  0.000      1      0  0.000  0.000  0.000  0.000  0.000  0.000  0.000   2.53   0.00   0.00      0      1    143.6   1.00   0.00   1.00    1.42    1.43    1.28    0.93    0.73    0.59      0      0      0       0      51 19.20
 2008 167    58    56   16.0      3   2.60   1822   1641      0    495   3463   3469      0    0.0  0.000      6      0  0.000  0.000  0.000  0.000  0.000  0.000  0.000   2.51   0.00   0.00      0      6    143.0   1.02   0.00   1.00    1.44    1.45    1.30    0.95    0.75    0.60      0      0      0       0      53 17.70
 2008 168    59    57   16.0      3   2.65   1859   1766      0    502   3625   3635      0    0.0  0.000     10      0  0.000  0.000  0.000  0.000  0.000  0.000  0.000   2.48   0.00   0.00      0     10    142.4   1.04   0.00   1.00    1.46    1.47    1.31    0.96    0.76    0.62      0      0      0       0      56 17.90
 2008 169    60    58   16.0      3   2.68   1883   1848      0    505   3732   3745      0    0.0  0.000     13      0  0.000  0.000  0.000  0.000  0.000  0.000  0.000   2.46   0.00   0.00      0     13    142.1   1.05   0.00   1.00    1.47    1.47    1.32    0.96    0.77    0.62      0      0      0       0      58 17.30
 2008 170    61    59   17.0      3   2.70   1904   1922      0    508   3826   3842      0    0.0  0.000     16      0  0.000  0.000  0.000  0.000  0.000  0.000  0.000   2.43   0.00   0.00      0     16    141.8   1.06   0.00   1.00    1.48    1.48    1.33    0.97    0.77    0.63      0      0      0       0      61 19.95
 2008 171    62    60   17.0      3   2.72   1925   1995      0    511   3920   3940      0    0.0  0.000     20      0  0.000  0.000  0.000  0.000  0.000  0.000  0.000   2.40   0.00   0.01      0     20    141.5   1.07   0.00   1.00    1.48    1.49    1.33    0.97    0.78    0.63      0      0      0       0      63 19.90
 2008 172    63    61   17.0      3   2.78   1970   2132      0    520   4102   4148      0    0.0  0.000     46      0  0.000  0.000  0.000  0.000  0.000  0.000  0.000   2.39   0.00   0.01      0     46    140.9   1.09   0.00   1.00    1.51    1.51    1.35    0.99    0.80    0.65      0      0      0       0      66 19.20
 2008 173    64    62   17.0      3   2.82   2013   2256      0    529   4269   4346      0    0.0  0.000     77      0  0.000  0.000  0.000  0.000  0.000  0.000  0.000   2.37   0.00   0.02      0     77    140.3   1.11   0.00   1.00    1.54    1.53    1.37    1.00    0.81    0.66      0      0      0       0      68 20.20
 2008 174    65    63   17.0      3   2.87   2055   2368      0    537   4423   4541      0    0.0  0.000    119      0  0.000  0.000  0.000  0.000  0.000  0.000  0.000   2.35   0.00   0.03      0    119    139.8   1.13   0.00   1.00    1.56    1.55    1.39    1.01    0.82    0.68      0      0      0       0      71 19.45
 2008 175    66    64   17.0      3   2.92   2098   2465      0    545   4563   4737      0    0.0  0.000    174      0  0.000  0.000  0.000  0.000  0.000  0.000  0.000   2.33   0.00   0.04      0    174    139.3   1.15   0.00   1.00    1.59    1.58    1.41    1.02    0.84    0.69      0      0      0       0      74 18.60
 2008 176    67    65   17.0      3   2.95   2120   2529      0    548   4649   4841      0    0.0  0.000    192      0  0.000  0.000  0.000  0.000  0.000  0.000  0.000   2.29   0.00   0.04      0    192    139.0   1.16   0.00   1.00    1.60    1.58    1.42    1.03    0.84    0.69      0      0      0       0      74 20.20
 2008 177    68    66   17.0      3   2.99   2158   2603      0    555   4761   5012      0    0.0  0.000    251      0  0.000  0.000  0.000  0.000  0.000  0.000  0.000   2.28   0.00   0.05      0    251    138.5   1.17   0.00   1.00    1.62    1.60    1.44    1.04    0.86    0.71      0      0      0       0      77 19.85
 2008 178    69    67   17.0      3   3.02   2189   2667      0    560   4856   5153      0    0.0  0.000    297      0  0.000  0.000  0.000  0.000  0.000  0.000  0.000   2.25   0.00   0.06      0    297    138.2   1.19   0.00   1.00    1.64    1.62    1.45    1.04    0.86    0.71      0      0      0       0      79 20.15
 2008 179    70    68   17.0      4   2.90   2160   2727      0    565   4888   5293      0    0.0  0.000    406      0  0.000  0.047  0.000  0.000  0.000  0.000  0.000   2.26   0.00   0.08      0    406    134.4   1.19   0.00   1.00    1.65    1.63    1.46    1.05    0.87    0.72      0      0      0       0      82 20.05
 2008 180    71    69   17.0      4   2.89   2130   2780      0    568   4909   5407      0    0.0  0.000    498      0  0.000  0.131  0.000  0.000  0.000  0.000  0.000   2.25   0.00   0.09      0    498    135.7   1.19   0.00   1.00    1.66    1.64    1.47    1.05    0.88    0.73      0      0      0       0      82 19.95
 2008 181    72    70   17.0      4   2.87   2096   2862      0    574   4958   5580      0    0.0  0.000    622      0  0.000  0.222  0.000  0.000  0.000  0.000  0.000   2.23   0.00   0.11      0    622    137.1   1.19   0.00   1.00    1.68    1.66    1.48    1.06    0.89    0.74      0      0      0       0      82 19.15
 2008 182    73    71   17.0      4   2.86   2061   2892      0    576   4953   5652      0    0.0  0.000    699      0  0.000  0.108  0.000  0.000  0.000  0.000  0.000   2.23   0.00   0.12      0    699    138.8   1.19   0.00   1.00    1.69    1.66    1.49    1.06    0.89    0.74      0      0      0       0      82 19.40
 2008 183    74    72   17.0      4   2.84   2023   2944      0    578   4967   5734      0    0.0  0.000    768      0  0.000  0.312  0.000  0.000  0.000  0.000  0.000   2.23   0.00   0.13      0    768    140.6   1.19   0.00   1.00    1.69    1.67    1.49    1.07    0.89    0.74      0      0      0       0      82 19.25
 2008 184    75    73   17.0      4   2.83   1982   3011      0    582   4993   5852      0    0.0  0.000    859      0  0.000  0.317  0.000  0.000  0.000  0.000  0.000   2.21   0.00   0.15      0    859    142.8   1.19   0.00   1.00    1.71    1.68    1.50    1.07    0.90    0.75      0      0      0       0      82 19.45
 2008 185    76    74   17.0      4   2.76   1939   3085      0    584   5024   5911      0    0.0  0.000    887      0  0.524  0.683  0.000  0.000  0.000  0.000  0.000   2.20   0.00   0.15      0    887    142.1   1.19   0.00   1.00    1.71    1.69    1.51    1.07    0.90    0.75      0      0      0       0      82 19.10
 2008 186    77    75   17.0      4   2.76   1894   3112      0    589   5006   6061      0    0.0  0.000   1056      0  0.000  0.000  0.000  0.000  0.000  0.000  0.000   2.21   0.00   0.17      0   1056    145.5   1.19   0.00   1.00    1.72    1.71    1.52    1.08    0.91    0.76      0      0      0       0      82 18.65
 2008 187    78    76   17.0      5   2.74   1894   3112    152    597   5006   6213   1444   10.5  0.024   1207      9  0.000  0.040  0.000  0.000  0.000  0.000  0.000   2.16  12.56   0.19      0   1207    144.9   1.19   0.00   1.00    1.74    1.73    1.54    1.09    0.92    0.77      0      0      0       0      82 17.10
 2008 188    79    77   17.0      5   2.74   1894   3112    303    595   5006   6365   1444   21.0  0.048   1359      9  0.000  0.260  0.000  0.000  0.000  0.000  0.000   2.10  22.31   0.21      0   1359    144.5   1.19   0.00   1.00    1.74    1.72    1.54    1.09    0.92    0.77      0      0      0       0      82 18.55
 2008 189    80    78   17.0      5   2.73   1894   3095    448    592   4989   6493   1444   31.1  0.069   1504      9  0.077  0.385  0.000  0.000  0.000  0.000  0.000   2.06  29.81   0.23      0   1504    143.9   1.19   0.00   1.00    1.74    1.72    1.54    1.09    0.92    0.77      0      0      0       0      82 18.30
 2008 190    81    79   17.0      5   2.68   1894   3076    571    589   4970   6597   1444   39.6  0.087   1627      9  0.345  0.564  0.000  0.000  0.000  0.000  0.000   2.02  35.11   0.25      0   1627    141.4   1.19   0.00   1.00    1.74    1.72    1.54    1.09    0.92    0.77      0      0      0       0      82 18.10
 2008 191    82    80   17.0      5   2.64   1894   3039    697    586   4933   6685   1444   48.3  0.104   1753      9  0.311  0.541  0.000  0.000  0.000  0.000  0.000   1.99  39.77   0.26      0   1753    139.2   1.19   0.00   1.00    1.74    1.72    1.54    1.09    0.92    0.77      0      0      0       0      82 18.35
 2008 192    83    81   17.0      5   2.56   1894   3011    802    583   4905   6762   1444   55.5  0.119   1857      9  0.561  0.708  0.000  0.000  0.000  0.000  0.000   1.96  43.17   0.27      0   1857    135.3   1.19   0.00   1.00    1.74    1.72    1.54    1.09    0.92    0.77      0      0      0       0      82 19.00
 2008 193    84    82   17.0      5   2.48   1894   2985    895    580   4879   6830   1444   62.0  0.131   1951      9  0.681  0.788  0.000  0.000  0.000  0.000  0.000   1.94  45.89   0.29      0   1951    130.7   1.19   0.00   1.00    1.74    1.72    1.54    1.09    0.92    0.77      0      0      0       0      82 19.10
 2008 194    85    83   17.0      5   2.39   1894   2958    984    577   4851   6891   1444   68.2  0.143   2040      9  0.708  0.806  0.000  0.000  0.000  0.000  0.000   1.91  48.24   0.30      0   2040    126.1   1.19   0.00   1.00    1.74    1.72    1.54    1.09    0.92    0.77      0      0      0       0      82 19.35
 2008 195    86    84   17.0      5   2.30   1894   2923   1076    574   4817   6948   1444   74.5  0.155   2131      9  0.716  0.811  0.000  0.000  0.000  0.000  0.000   1.89  50.47   0.31      0   2131    121.6   1.19   0.00   1.00    1.74    1.72    1.54    1.09    0.92    0.77      0      0      0       0      82 18.60
 2008 196    87    85   17.0      5   2.22   1894   2884   1167    571   4778   7000   1444   80.8  0.167   2223      9  0.710  0.807  0.000  0.000  0.000  0.000  0.000   1.87  52.51   0.32      0   2223    117.3   1.19   0.00   1.00    1.74    1.72    1.54    1.09    0.92    0.77      0      0      0       0      82 19.10
 2008 197    88    86   17.0      5   2.22   1894   2848   1305    568   4742   7103   1444   90.4  0.184   2361      9  0.000  0.000  0.000  0.000  0.000  0.000  0.000   1.83  55.29   0.33      0   2361    117.3   1.19   0.00   1.00    1.74    1.72    1.54    1.09    0.92    0.77      0      0      0       0      82 19.70
 2008 198    89    87   17.0      5   2.22   1894   2880   1457    581   4773   7286   1444  100.9  0.200   2513      9  0.000  0.104  0.000  0.000  0.000  0.000  0.000   1.77  57.99   0.34      0   2513    117.3   1.19   0.00   1.00    1.76    1.76    1.58    1.10    0.94    0.79      0      0      0       0      82 18.65
 2008 199    90    88   17.0      5   2.18   1894   2881   1581    579   4775   7411   1444  109.5  0.213   2637      9  0.330  0.554  0.000  0.000  0.000  0.000  0.000   1.72  59.96   0.36      0   2637    115.3   1.19   0.00   1.00    1.76    1.75    1.57    1.10    0.93    0.79      0      0      0       0      82 19.00
 2008 200    91    89   17.0      5   2.18   1894   2846   1733    576   4739   7527   1444  120.0  0.230   2788      9  0.000  0.000  0.000  0.000  0.000  0.000  0.000   1.68  62.14   0.37      0   2788    115.3   1.19   0.00   1.00    1.76    1.75    1.57    1.10    0.93    0.79      0      0      0       0      82 17.40
 2008 201    92    90   17.0      5   2.18   1894   2856   1882    578   4749   7687   1444  130.4  0.245   2938      9  0.000  0.000  0.000  0.000  0.000  0.000  0.000   1.62  64.07   0.38      0   2938    115.3   1.19   0.00   1.00    1.76    1.76    1.58    1.10    0.94    0.79      0      0      0       0      82 19.10
 2008 202    93    91   17.0      5   2.18   1894   2822   2034    575   4715   7804   1444  140.9  0.261   3089      9  0.000  0.000  0.000  0.000  0.000  0.000  0.000   1.58  65.83   0.40      0   3089    115.3   1.19   0.00   1.00    1.76    1.76    1.58    1.10    0.94    0.79      0      0      0       0      82 15.95
 2008 203    94    92   17.0      5   2.18   1894   2827   2183    575   4721   7959   1444  151.2  0.274   3238      9  0.000  0.000  0.000  0.000  0.000  0.000  0.000   1.52  67.40   0.41      0   3238    115.3   1.19   0.00   1.00    1.75    1.76    1.58    1.10    0.94    0.79      0      0      0       0      82 19.15
 2008 204    95    93   17.0      5   2.18   1894   2788   2334    573   4681   8071   1444  161.7  0.289   3390      9  0.000  0.000  0.000  0.000  0.000  0.000  0.000   1.48  68.86   0.42      0   3390    115.3   1.19   0.00   1.00    1.75    1.76    1.58    1.10    0.94    0.79      0      0      0       0      82 19.00
 2008 205    96    94   17.0      5   2.18   1894   2807   2478    580   4701   8235   1444  171.7  0.301   3534      9  0.000  0.000  0.000  0.000  0.000  0.000  0.000   1.42  70.13   0.43      0   3534    115.3   1.19   0.00   1.00    1.76    1.78    1.60    1.11    0.95    0.80      0      0      0       0      82 19.40
 2008 206    97    95   17.0      5   2.13   1894   2831   2630    588   4724   8410   1444  182.2  0.313   3685      9  0.000  0.047  0.000  0.000  0.000  0.000  0.000   1.35  71.36   0.44      0   3685    112.4   1.19   0.00   1.00    1.78    1.80    1.63    1.13    0.96    0.81      0      0      0       0      82 18.50
 2008 207    98    96   17.0      5   2.06   1894   2818   2781    585   4712   8549   1444  192.7  0.325   3837      9  0.000  0.214  0.000  0.000  0.000  0.000  0.000   1.30  72.49   0.45      0   3837    108.9   1.19   0.00   1.00    1.78    1.80    1.63    1.13    0.96    0.81      0      0      0       0      82 17.75
 2008 208    99    97   17.0      5   1.98   1894   2792   2930    582   4685   8671   1444  203.0  0.338   3986      9  0.000  0.000  0.000  0.000  0.000  0.000  0.000   1.25  73.51   0.46      0   3986    104.8   1.19   0.00   1.00    1.78    1.80    1.63    1.13    0.96    0.81      0      0      0       0      82 19.15
 2008 209   100    98   17.0      5   1.90   1894   2745   3082    580   4638   8776   1444  213.5  0.351   4137      9  0.000  0.000  0.000  0.000  0.000  0.000  0.000   1.21  74.49   0.47      0   4137    100.6   1.19   0.00   1.00    1.78    1.80    1.63    1.13    0.96    0.81      0      0      0       0      82 18.80
 2008 210   101    99   17.0      5   1.82   1894   2753   3233    581   4646   8935   1444  224.0  0.362   4289      9  0.000  0.000  0.000  0.000  0.000  0.000  0.000   1.15  75.39   0.48      0   4289     96.1   1.19   0.00   1.00    1.78    1.80    1.63    1.13    0.96    0.81      0      0      0       0      82 18.30
 2008 211   102   100   17.0      5   1.74   1894   2750   3385    578   4644   9084   1444  234.5  0.373   4440      9  0.000  0.000  0.000  0.000  0.000  0.000  0.000   1.11  76.23   0.49      0   4440     91.7   1.19   0.00   1.00    1.78    1.80    1.63    1.13    0.96    0.81      0      0      0       0      85 17.10
 2008 212   103   101   17.0      5   1.64   1894   2711   3536    575   4604   9197   1444  245.0  0.385   4592      9  0.000  0.000  0.000  0.000  0.000  0.000  0.000   1.09  77.01   0.50      0   4592     86.8   1.19   0.00   1.00    1.78    1.80    1.63    1.13    0.96    0.81      0      0      0       0      88 18.20
 2008 213   104   102   17.0      5   1.55   1894   2696   3688    572   4589   9333   1444  255.5  0.395   4744      9  0.000  0.000  0.000  0.000  0.000  0.000  0.000   1.07  77.75   0.51      0   4744     81.7   1.19   0.00   1.00    1.78    1.80    1.63    1.13    0.96    0.81      0      0      0       0      91 17.80
 2008 214   105   103   17.0      5   1.45   1894   2666   3840    569   4560   9455   1444  266.0  0.406   4895      9  0.000  0.000  0.000  0.000  0.000  0.000  0.000   1.05  78.44   0.52      0   4895     76.4   1.19   0.00   1.00    1.78    1.80    1.63    1.13    0.96    0.81      0      0      0       0      94 17.20
 2008 215   106   104   17.0      5   1.33   1894   2667   3991    567   4560   9607   1444  276.5  0.415   5047      9  0.000  0.000  0.000  0.000  0.000  0.000  0.000   1.02  79.08   0.53      0   5047     70.4   1.19   0.00   1.00    1.77    1.79    1.62    1.12    0.96    0.81      0      0      0       0      96 19.00
 2008 216   107   105   17.0      5   1.21   1894   2603   4133    564   4496   9685   1444  286.3  0.427   5189      9  0.000  0.000  0.000  0.000  0.000  0.000  0.000   1.00  79.66   0.54      0   5189     63.7   1.19   0.00   1.00    1.77    1.79    1.62    1.12    0.96    0.81      0      0      0       0      99 19.50
 2008 217   108   106   17.0      5   1.21   1894   2603   4133    564   4496   9685   1444  286.3  0.427   5189      9  0.000  0.000  0.000  0.000  0.000  0.000  0.000   1.00  79.66   0.54      0   5189     63.7   1.19   0.00   1.00    1.77    1.79    1.62    1.12    0.96    0.81      0      0      0       0      99 18.45
 2008 218   109   107   17.0      5   1.21   1894   2603   4133    564   4496   9685   1444  286.3  0.427   5189      9  0.000  0.000  0.000  0.000  0.000  0.000  0.000   1.00  79.66   0.54      0   5189     63.7   1.19   0.00   1.00    1.77    1.79    1.62    1.12    0.96    0.81      0      0      0       0      99 18.35
 2008 219   110   108   17.0      5   1.21   1894   2603   4133    564   4496   9685   1444  286.3  0.427   5189      9  0.000  0.000  0.000  0.000  0.000  0.000  0.000   1.00  79.66   0.54      0   5189     63.7   1.19   0.00   1.00    1.77    1.79    1.62    1.12    0.96    0.81      0      0      0       0      99  0.00
 2008 220   111   109   17.0      5   1.21   1894   2603   4133    564   4496   9685   1444  286.3  0.427   5189      9  0.000  0.000  0.000  0.000  0.000  0.000  0.000   1.00  79.66   0.54      0   5189     63.7   1.19   0.00   1.00    1.77    1.79    1.62    1.12    0.96    0.81      0      0      0       0      99 17.75
 2008 221   112   110   17.0      5   1.21   1894   2603   4133    564   4496   9685   1444  286.3  0.427   5189      9  0.000  0.000  0.000  0.000  0.000  0.000  0.000   1.00  79.66   0.54      0   5189     63.7   1.19   0.00   1.00    1.77    1.79    1.62    1.12    0.96    0.81      0      0      0       0      99 19.15
 2008 222   113   111   17.0      5   1.21   1894   2603   4133    564   4496   9685   1444  286.3  0.427   5189      9  0.000  0.000  0.000  0.000  0.000  0.000  0.000   1.00  79.66   0.54      0   5189     63.7   1.19   0.00   1.00    1.77    1.79    1.62    1.12    0.96    0.81      0      0      0       0      99 19.65
 2008 223   114   112   17.0      5   1.21   1894   2603   4133    564   4496   9685   1444  286.3  0.427   5189      9  0.000  0.000  0.000  0.000  0.000  0.000  0.000   1.00  79.66   0.54      0   5189     63.7   1.19   0.00   1.00    1.77    1.79    1.62    1.12    0.96    0.81      0      0      0       0      99 19.20
 2008 224   115   113   17.0      5   1.21   1894   2603   4133    564   4496   9685   1444  286.3  0.427   5189      9  0.000  0.000  0.000  0.000  0.000  0.000  0.000   1.00  79.66   0.54      0   5189     63.7   1.19   0.00   1.00    1.77    1.79    1.62    1.12    0.96    0.81      0      0      0       0      99 17.75
 2008 225   116   114   17.0      5   1.21   1894   2603   4133    564   4496   9685   1444  286.3  0.427   5189      9  0.000  0.000  0.000  0.000  0.000  0.000  0.000   1.00  79.66   0.54      0   5189     63.7   1.19   0.00   1.00    1.77    1.79    1.62    1.12    0.96    0.81      0      0      0       0      99 19.35
 2008 226   117   115   17.0      5   1.21   1894   2603   4133    564   4496   9685   1444  286.3  0.427   5189      9  0.000  0.000  0.000  0.000  0.000  0.000  0.000   1.00  79.66   0.54      0   5189     63.7   1.19   0.00   1.00    1.77    1.79    1.62    1.12    0.96    0.81      0      0      0       0      99 18.10
 2008 227   118   116   17.0      5   1.21   1894   2603   4133    564   4496   9685   1444  286.3  0.427   5189      9  0.000  0.000  0.000  0.000  0.000  0.000  0.000   1.00  79.66   0.54      0   5189     63.7   1.19   0.00   1.00    1.77    1.79    1.62    1.12    0.96    0.81      0      0      0       0      99 18.55
 2008 228   119   117   17.0      5   1.21   1894   2603   4133    564   4496   9685   1444  286.3  0.427   5189      9  0.000  0.000  0.000  0.000  0.000  0.000  0.000   1.00  79.66   0.54      0   5189     63.7   1.19   0.00   1.00    1.77    1.79    1.62    1.12    0.96    0.81      0      0      0       0      99 18.00
 2008 229   120   118   17.0      5   1.21   1894   2603   4133    564   4496   9685   1444  286.3  0.427   5189      9  0.000  0.000  0.000  0.000  0.000  0.000  0.000   1.00  79.66   0.54      0   5189     63.7   1.19   0.00   1.00    1.77    1.79    1.62    1.12    0.96    0.81      0      0      0       0      99 18.05
 2008 230   121   119   17.0      5   1.21   1894   2603   4133    564   4496   9685   1444  286.3  0.427   5189      9  0.000  0.000  0.000  0.000  0.000  0.000  0.000   1.00  79.66   0.54      0   5189     63.7   1.19   0.00   1.00    1.77    1.79    1.62    1.12    0.96    0.81      0      0      0       0      99 19.45
 2008 231   122   120   17.0      5   1.21   1894   2603   4133    564   4496   9685   1444  286.3  0.427   5189      9  0.000  0.000  0.000  0.000  0.000  0.000  0.000   1.00  79.66   0.54      0   5189     63.7   1.19   0.00   1.00    1.77    1.79    1.62    1.12    0.96    0.81      0      0      0       0      99 18.80
 2008 232   123   121   17.0      5   1.21   1894   2603   4133    564   4496   9685   1444  286.3  0.427   5189      9  0.000  0.000  0.000  0.000  0.000  0.000  0.000   1.00  79.66   0.54      0   5189     63.7   1.19   0.00   1.00    1.77    1.79    1.62    1.12    0.96    0.81      0      0      0       0      99 19.40
 2008 233   124   122   17.0      5   1.21   1894   2603   4133    564   4496   9685   1444  286.3  0.427   5189      9  0.000  0.000  0.000  0.000  0.000  0.000  0.000   1.00  79.66   0.54      0   5189     63.7   1.19   0.00   1.00    1.77    1.79    1.62    1.12    0.96    0.81      0      0      0       0      99 18.30
 2008 234   125   123   17.0      5   1.21   1894   2603   4133    564   4496   9685   1444  286.3  0.427   5189      9  0.000  0.000  0.000  0.000  0.000  0.000  0.000   1.00  79.66   0.54      0   5189     63.7   1.19   0.00   1.00    1.77    1.79    1.62    1.12    0.96    0.81      0      0      0       0      99 18.85
 2008 235   126   124   17.0      5   1.21   1894   2603   4133    564   4496   9685   1444  286.3  0.427   5189      9  0.000  0.000  0.000  0.000  0.000  0.000  0.000   1.00  79.66   0.54      0   5189     63.7   1.19   0.00   1.00    1.77    1.79    1.62    1.12    0.96    0.81      0      0      0       0      99 18.20
 2008 236   127   125   17.0      5   1.21   1894   2603   4133    564   4496   9685   1444  286.3  0.427   5189      9  0.000  0.000  0.000  0.000  0.000  0.000  0.000   1.00  79.66   0.54      0   5189     63.7   1.19   0.00   1.00    1.77    1.79    1.62    1.12    0.96    0.81      0      0      0       0      99 19.05
 2008 237   128   126   17.0      5   1.21   1894   2603   4133    564   4496   9685   1444  286.3  0.427   5189      9  0.000  0.000  0.000  0.000  0.000  0.000  0.000   1.00  79.66   0.54      0   5189     63.7   1.19   0.00   1.00    1.77    1.79    1.62    1.12    0.96    0.81      0      0      0       0      99 18.90
 2008 238   129   127   17.0      5   1.21   1894   2603   4133    564   4496   9685   1444  286.3  0.427   5189      9  0.000  0.000  0.000  0.000  0.000  0.000  0.000   1.00  79.66   0.54      0   5189     63.7   1.19   0.00   1.00    1.77    1.79    1.62    1.12    0.96    0.81      0      0      0       0      99 19.75
 2008 239   130   128   17.0      5   1.21   1894   2603   4133    564   4496   9685   1444  286.3  0.427   5189      9  0.000  0.000  0.000  0.000  0.000  0.000  0.000   1.00  79.66   0.54      0   5189     63.7   1.19   0.00   1.00    1.77    1.79    1.62    1.12    0.96    0.81      0      0      0       0      99 18.80
 2008 240   131   129   17.0      5   1.21   1894   2603   4133    564   4496   9685   1444  286.3  0.427   5189      9  0.000  0.000  0.000  0.000  0.000  0.000  0.000   1.00  79.66   0.54      0   5189     63.7   1.19   0.00   1.00    1.77    1.79    1.62    1.12    0.96    0.81      0      0      0       0      99 17.65
 2008 241   132   130   17.0      5   1.21   1894   2603   4133    564   4496   9685   1444  286.3  0.427   5189      9  0.000  0.000  0.000  0.000  0.000  0.000  0.000   1.00  79.66   0.54      0   5189     63.7   1.19   0.00   1.00    1.77    1.79    1.62    1.12    0.96    0.81      0      0      0       0      99 18.15
 2008 242   133   131   17.0      5   1.21   1894   2603   4133    564   4496   9685   1444  286.3  0.427   5189      9  0.000  0.000  0.000  0.000  0.000  0.000  0.000   1.00  79.66   0.54      0   5189     63.7   1.19   0.00   1.00    1.77    1.79    1.62    1.12    0.96    0.81      0      0      0       0      99 18.80
 2008 243   134   132   17.0      5   1.21   1894   2603   4133    564   4496   9685   1444  286.3  0.427   5189      9  0.000  0.000  0.000  0.000  0.000  0.000  0.000   1.00  79.66   0.54      0   5189     63.7   1.19   0.00   1.00    1.77    1.79    1.62    1.12    0.96    0.81      0      0      0       0      99 19.10
 2008 244   135   133   17.0      5   1.21   1894   2603   4133    564   4496   9685   1444  286.3  0.427   5189      9  0.000  0.000  0.000  0.000  0.000  0.000  0.000   1.00  79.66   0.54      0   5189     63.7   1.19   0.00   1.00    1.77    1.79    1.62    1.12    0.96    0.81      0      0      0       0      99 18.20
 2008 245   136   134   17.0      5   1.21   1894   2603   4133    564   4496   9685   1444  286.3  0.427   5189      9  0.000  0.000  0.000  0.000  0.000  0.000  0.000   1.00  79.66   0.54      0   5189     63.7   1.19   0.00   1.00    1.77    1.79    1.62    1.12    0.96    0.81      0      0      0       0      99 18.45
 2008 246   137   135   17.0      5   1.21   1894   2603   4133    564   4496   9685   1444  286.3  0.427   5189      9  0.000  0.000  0.000  0.000  0.000  0.000  0.000   1.00  79.66   0.54      0   5189     63.7   1.19   0.00   1.00    1.77    1.79    1.62    1.12    0.96    0.81      0      0      0       0      99 18.20
 2008 247   138   136   17.0      5   1.21   1894   2603   4133    564   4496   9685   1444  286.3  0.427   5189      9  0.000  0.000  0.000  0.000  0.000  0.000  0.000   1.00  79.66   0.54      0   5189     63.7   1.19   0.00   1.00    1.77    1.79    1.62    1.12    0.96    0.81      0      0      0       0      99 18.60
 2008 248   139   137   17.0      5   1.21   1894   2603   4133    564   4496   9685   1444  286.3  0.427   5189      9  0.000  0.000  0.000  0.000  0.000  0.000  0.000   1.00  79.66   0.54      0   5189     63.7   1.19   0.00   1.00    1.77    1.79    1.62    1.12    0.96    0.81      0      0      0       0      99 19.10
 2008 249   140   138   17.0      5   1.21   1894   2603   4133    564   4496   9685   1444  286.3  0.427   5189      9  0.000  0.000  0.000  0.000  0.000  0.000  0.000   1.00  79.66   0.54      0   5189     63.7   1.19   0.00   1.00    1.77    1.79    1.62    1.12    0.96    0.81      0      0      0       0      99 19.65
 2008 250   141   139   17.0      5   1.21   1894   2603   4133    564   4496   9685   1444  286.3  0.427   5189      9  0.000  0.000  0.000  0.000  0.000  0.000  0.000   1.00  79.66   0.54      0   5189     63.7   1.19   0.00   1.00    1.77    1.79    1.62    1.12    0.96    0.81      0      0      0       0      99 19.25
 2008 251   142   140   17.0      5   1.21   1894   2603   4133    564   4496   9685   1444  286.3  0.427   5189      9  0.000  0.000  0.000  0.000  0.000  0.000  0.000   1.00  79.66   0.54      0   5189     63.7   1.19   0.00   1.00    1.77    1.79    1.62    1.12    0.96    0.81      0      0      0       0      99 19.30
 2008 252   143   141   17.0      5   1.21   1894   2603   4133    564   4496   9685   1444  286.3  0.427   5189      9  0.000  0.000  0.000  0.000  0.000  0.000  0.000   1.00  79.66   0.54      0   5189     63.7   1.19   0.00   1.00    1.77    1.79    1.62    1.12    0.96    0.81      0      0      0       0      99 19.10
 2008 253   144   142   17.0      5   1.21   1894   2603   4133    564   4496   9685   1444  286.3  0.427   5189      9  0.000  0.000  0.000  0.000  0.000  0.000  0.000   1.00  79.66   0.54      0   5189     63.7   1.19   0.00   1.00    1.77    1.79    1.62    1.12    0.96    0.81      0      0      0       0      99 19.45
 2008 254   145   143   17.0      5   1.21   1894   2603   4133    564   4496   9685   1444  286.3  0.427   5189      9  0.000  0.000  0.000  0.000  0.000  0.000  0.000   1.00  79.66   0.54      0   5189     63.7   1.19   0.00   1.00    1.77    1.79    1.62    1.12    0.96    0.81      0      0      0       0      99 19.40
 2008 255   146   144   17.0      5   1.21   1894   2603   4133    564   4496   9685   1444  286.3  0.427   5189      9  0.000  0.000  0.000  0.000  0.000  0.000  0.000   1.00  79.66   0.54      0   5189     63.7   1.19   0.00   1.00    1.77    1.79    1.62    1.12    0.96    0.81      0      0      0       0      99 19.30
 2008 256   147   145   17.0      5   1.21   1894   2603   4133    564   4496   9685   1444  286.3  0.427   5189      9  0.000  0.000  0.000  0.000  0.000  0.000  0.000   1.00  79.66   0.54      0   5189     63.7   1.19   0.00   1.00    1.77    1.79    1.62    1.12    0.96    0.81      0      0      0       0      99 19.20
