*PLANT N OUTPUT FILE

*DSSAT Cropping System Model Ver. 4.7.2.000 -release      OCT 15, 2021; 17:59:33
                                                                                
*RUN   1        :             CSM335_date_1 MZCER047 ITSA1301    1              
 MODEL          : MZCER047 - Maize                                              
 EXPERIMENT     : ITSA1301 SG CALIBRATION SETUP OF SORGHUM SOWING DATES         
 DATA PATH      :                                                               
 TREATMENT  1   :             CSM335_date_1 MZCER047                            
  
@YEAR DOY   DAS   DAP   CNAD   GNAD   VNAD   GN%D   VN%D   NUPC   LNAD   SNAD   LN%D   SN%D   RN%D   SNN0C   SNN1C
 2008 111     2     0    0.0    0.0    0.0   0.00   0.00    0.0    0.0    0.0    0.0   0.00   0.00    0.00    0.00
 2008 112     3     1    0.0    0.0    0.0   0.00   0.00    0.0    0.0    0.0    0.0   0.00   0.00    0.00    0.00
 2008 113     4     2    0.0    0.0    0.0   0.00   0.00    0.0    0.0    0.0    0.0   0.00   0.00    0.00    0.00
 2008 114     5     3    0.0    0.0    0.0   0.00   0.00    0.0    0.0    0.0    0.0   0.00   0.00    0.00    0.00
 2008 115     6     4    1.5    0.0    1.5   0.00   4.40    0.0    0.8    0.8    4.4   4.40   2.20    0.00    0.00
 2008 116     7     5    1.5    0.0    1.5   0.00   4.40    0.0    0.8    0.8    4.4   4.40   2.18    0.00    0.00
 2008 117     8     6    1.5    0.0    1.5   0.00   4.40    0.0    0.8    0.8    4.4   4.40   2.11    0.00    0.00
 2008 118     9     7    1.5    0.0    1.5   0.00   4.40    0.0    0.8    0.8    4.4   4.40   2.06    0.00    0.00
 2008 119    10     8    1.5    0.0    1.5   0.00   4.40    0.0    0.8    0.8    4.4   4.40   1.98    0.00    0.00
 2008 120    11     9    1.5    0.0    1.5   0.00   4.40    0.0    0.8    0.8    4.4   4.40   1.88    0.00    0.00
 2008 121    12    10    1.5    0.0    1.5   0.00   4.40    0.0    0.8    0.8    4.4   4.40   1.71    0.00    0.00
 2008 122    13    11    1.5    0.0    1.5   0.00   4.40    0.0    0.8    0.8    4.4   4.40   1.48    0.00    0.00
 2008 123    14    12    1.5    0.0    1.5   0.00   4.21    0.0    0.8    0.7    4.2   4.21   1.36    0.00    0.00
 2008 124    15    13    1.5    0.0    1.5   0.00   3.49    0.0    0.9    0.6    3.5   3.49   1.33    0.00    0.00
 2008 125    16    14    1.8    0.0    1.8   0.00   3.54    0.3    1.2    0.6    3.5   3.54   1.19    0.00    0.00
 2008 126    17    15    2.1    0.0    2.1   0.00   3.40    0.5    1.5    0.6    3.4   3.40   1.10    0.00    0.00
 2008 127    18    16    2.5    0.0    2.5   0.00   3.34    0.9    1.9    0.6    3.3   3.34   1.12    0.00    0.01
 2008 128    19    17    2.9    0.0    2.9   0.00   3.40    1.5    2.3    0.6    3.4   3.40   1.21    0.00    0.01
 2008 129    20    18    3.4    0.0    3.4   0.00   3.62    2.1    2.7    0.6    3.6   3.62   1.35    0.00    0.01
 2008 130    21    19    3.6    0.0    3.6   0.00   3.62    2.4    3.0    0.6    3.6   3.62   1.21    0.00    0.01
 2008 131    22    20    3.9    0.0    3.9   0.00   3.56    2.8    3.3    0.6    3.6   3.56   1.32    0.00    0.02
 2008 132    23    21    4.2    0.0    4.2   0.00   3.19    3.0    3.6    0.6    3.2   3.19   1.13    0.00    0.02
 2008 133    24    22    5.6    0.0    5.6   0.00   3.89    4.7    4.9    0.7    3.9   3.89   1.30    0.00    0.03
 2008 134    25    23    6.2    0.0    6.2   0.00   3.74    5.2    5.5    0.7    3.7   3.74   1.11    0.00    0.03
 2008 135    26    24    6.6    0.0    6.6   0.00   3.63    5.8    6.0    0.6    3.6   3.63   1.19    0.00    0.04
 2008 136    27    25    7.2    0.0    7.2   0.00   3.67    6.7    6.6    0.7    3.7   3.67   1.30    0.00    0.04
 2008 137    28    26    7.9    0.0    7.9   0.00   3.51    7.2    7.3    0.6    3.5   3.51   1.08    0.00    0.05
 2008 138    29    27    8.7    0.0    8.7   0.00   3.57    8.3    8.0    0.7    3.6   3.57   1.25    0.00    0.05
 2008 139    30    28    9.8    0.0    9.8   0.00   3.43    9.5    9.1    0.7    3.4   3.43   1.20    0.00    0.06
 2008 140    31    29   11.2    0.0   11.2   0.00   3.39   10.9   10.5    0.7    3.4   3.39   1.10    0.00    0.07
 2008 141    32    30   12.8    0.0   12.8   0.00   3.35   12.9   11.9    0.8    3.4   3.35   1.20    0.00    0.08
 2008 142    33    31   14.2    0.0   14.2   0.00   3.31   14.7   13.3    1.0    3.3   3.31   1.23    0.00    0.09
 2008 143    34    32   15.9    0.0   15.9   0.00   3.27   16.6   14.8    1.1    3.3   3.27   1.18    0.00    0.10
 2008 144    35    33   17.4    0.0   17.4   0.00   3.23   18.6   16.1    1.3    3.2   3.23   1.23    0.00    0.11
 2008 145    36    34   19.5    0.0   19.5   0.00   3.19   20.4   17.8    1.6    3.2   3.19   1.08    0.00    0.13
 2008 146    37    35   21.6    0.0   21.6   0.00   3.16   22.6   19.6    2.0    3.2   3.16   1.08    0.00    0.14
 2008 147    38    36   24.1    0.0   24.1   0.00   3.12   25.6   21.6    2.5    3.1   3.12   1.17    0.00    0.15
 2008 148    39    37   25.9    0.0   25.9   0.00   3.09   28.2   23.0    2.9    3.1   3.09   1.22    0.00    0.17
 2008 149    40    38   28.2    0.0   28.2   0.00   3.05   30.0   24.7    3.4    3.1   3.05   1.08    0.00    0.19
 2008 150    41    39   31.5    0.0   31.5   0.00   3.02   33.7   27.2    4.3    3.0   3.02   1.12    0.00    0.21
 2008 151    42    40   33.6    0.0   33.6   0.00   2.99   35.7   28.7    4.9    3.0   2.99   1.08    0.00    0.23
 2008 152    43    41   36.8    0.0   36.8   0.00   2.95   39.0   30.9    5.9    3.0   2.95   1.08    0.00    0.25
 2008 153    44    42   40.8    0.0   40.8   0.00   2.92   43.1   33.5    7.3    2.9   2.92   1.10    0.00    0.27
 2008 154    45    43   44.8    0.0   44.8   0.00   2.89   47.7   36.1    8.7    2.9   2.89   1.14    0.00    0.29
 2008 155    46    44   46.9    0.0   46.9   0.00   2.86   49.5   36.9    9.9    2.9   2.86   1.08    0.00    0.31
 2008 156    47    45   48.8    0.0   48.8   0.00   2.83   51.5   37.5   11.2    2.8   2.83   1.08    0.00    0.33
 2008 157    48    46   54.0    0.0   54.0   0.00   2.79   57.0   39.3   14.7    2.8   2.79   1.09    0.00    0.35
 2008 158    49    47   56.4    0.0   56.4   0.00   2.76   59.4   39.9   16.6    2.8   2.76   1.08    0.00    0.38
 2008 159    50    48   59.2    0.0   59.2   0.00   2.73   62.2   40.5   18.7    2.7   2.73   1.08    0.00    0.40
 2008 160    51    49   64.2    0.0   64.2   0.00   2.70   67.4   41.7   22.5    2.7   2.70   1.09    0.00    0.42
 2008 161    52    50   68.0    0.0   68.0   0.00   2.67   71.3   42.5   25.5    2.7   2.67   1.09    0.00    0.44
 2008 162    53    51   71.6    0.0   71.6   0.00   2.64   75.0   43.2   28.4    2.6   2.64   1.09    0.00    0.47
 2008 163    54    52   76.0    0.0   76.0   0.00   2.61   79.6   44.1   31.9    2.6   2.61   1.10    0.00    0.49
 2008 164    55    53   79.7    0.0   79.7   0.00   2.61   83.8   45.0   34.7    2.6   2.61   1.14    0.00    0.52
 2008 165    56    54   81.1    0.0   81.1   0.00   2.56   85.0   44.8   36.3    2.6   2.56   1.08    0.00    0.54
 2008 166    57    55   82.7    0.0   82.7   0.00   2.53   86.5   44.9   37.7    2.5   2.53   1.08    0.00    0.57
 2008 167    58    56   86.8    0.0   86.8   0.00   2.51   90.9   45.7   41.2    2.5   2.51   1.09    0.00    0.60
 2008 168    59    57   90.0    0.0   90.0   0.00   2.48   94.1   46.2   43.8    2.5   2.48   1.08    0.00    0.62
 2008 169    60    58   91.7    0.0   91.7   0.00   2.46   95.9   46.3   45.4    2.5   2.46   1.08    0.00    0.65
 2008 170    61    59   93.0    0.0   93.0   0.00   2.43   97.2   46.3   46.7    2.4   2.43   1.08    0.00    0.68
 2008 171    62    60   94.3    0.0   94.3   0.00   2.40   98.5   46.3   48.0    2.4   2.40   1.08    0.00    0.71
 2008 172    63    61   98.1    0.0   98.1   0.00   2.39  102.6   47.1   51.0    2.4   2.39   1.09    0.00    0.73
 2008 173    64    62  101.1    0.0  101.1   0.00   2.37  105.6   47.6   53.4    2.4   2.37   1.09    0.00    0.76
 2008 174    65    63  103.8    0.0  103.8   0.00   2.35  108.5   48.2   55.6    2.3   2.35   1.09    0.00    0.79
 2008 175    66    64  106.3    0.0  106.3   0.00   2.33  111.1   48.9   57.4    2.3   2.33   1.09    0.00    0.82
 2008 176    67    65  106.3    0.0  106.3   0.00   2.29  111.1   48.5   57.8    2.3   2.29   1.08    0.00    0.82
 2008 177    68    66  108.5    0.0  108.5   0.00   2.28  113.4   49.2   59.3    2.3   2.28   1.08    0.00    0.85
 2008 178    69    67  109.1    0.0  109.1   0.00   2.25  114.1   49.2   59.9    2.2   2.25   1.08    0.00    0.88
 2008 179    70    68  110.6    0.0  110.6   0.00   2.26  115.6   48.9   61.7    2.3   2.26   1.08    0.00    0.91
 2008 180    71    69  110.6    0.0  110.6   0.00   2.25  115.6   48.0   62.6    2.3   2.25   1.07    0.00    0.91
 2008 181    72    70  110.6    0.0  110.6   0.00   2.23  115.6   46.7   63.8    2.2   2.23   1.06    0.00    0.91
 2008 182    73    71  110.6    0.0  110.6   0.00   2.23  115.6   46.0   64.6    2.2   2.23   1.06    0.00    0.91
 2008 183    74    72  110.6    0.0  110.6   0.00   2.23  115.6   45.0   65.5    2.2   2.23   1.05    0.00    0.91
 2008 184    75    73  110.6    0.0  110.6   0.00   2.21  115.6   43.9   66.7    2.2   2.21   1.05    0.00    0.91
 2008 185    76    74  110.6    0.0  110.6   0.00   2.20  115.6   42.7   67.9    2.2   2.20   1.04    0.00    0.91
 2008 186    77    75  110.6    0.0  110.6   0.00   2.21  115.6   41.8   68.7    2.2   2.21   1.03    0.00    0.91
 2008 187    78    76  110.6    2.6  108.0   1.71   2.16  115.6   40.8   67.1    2.2   2.16   1.02    0.00    0.91
 2008 188    79    77  110.6    5.3  105.3   1.73   2.10  115.6   39.8   65.5    2.1   2.10   1.02    0.00    0.91
 2008 189    80    78  110.6    7.8  102.7   1.75   2.06  115.6   39.0   63.7    2.1   2.06   1.03    0.00    0.91
 2008 190    81    79  110.6   10.1  100.5   1.76   2.02  115.6   38.3   62.2    2.0   2.02   1.03    0.00    0.91
 2008 191    82    80  110.6   12.4   98.2   1.77   1.99  115.6   37.7   60.5    2.0   1.99   1.04    0.00    0.91
 2008 192    83    81  110.6   14.3   96.3   1.78   1.96  115.6   37.2   59.1    2.0   1.96   1.04    0.00    0.91
 2008 193    84    82  110.6   16.0   94.5   1.79   1.94  115.6   36.7   57.8    1.9   1.94   1.05    0.00    0.91
 2008 194    85    83  110.6   17.7   92.9   1.80   1.91  115.6   36.2   56.6    1.9   1.91   1.06    0.00    0.91
 2008 195    86    84  110.6   19.4   91.1   1.81   1.89  115.6   35.8   55.3    1.9   1.89   1.06    0.00    0.91
 2008 196    87    85  110.6   21.1   89.4   1.81   1.87  115.6   35.4   54.0    1.9   1.87   1.07    0.00    0.91
 2008 197    88    86  110.6   23.6   87.0   1.81   1.83  115.6   34.7   52.3    1.8   1.83   1.07    0.00    0.91
 2008 198    89    87  110.6   26.2   84.4   1.80   1.77  115.6   33.5   50.9    1.8   1.77   1.05    0.00    0.91
 2008 199    90    88  110.6   28.5   82.1   1.80   1.72  115.6   32.6   49.5    1.7   1.72   1.05    0.00    0.91
 2008 200    91    89  110.6   31.1   79.5   1.79   1.68  115.6   31.8   47.7    1.7   1.68   1.06    0.00    0.91
 2008 201    92    90  110.6   33.7   76.9   1.79   1.62  115.6   30.7   46.2    1.6   1.62   1.05    0.00    0.91
 2008 202    93    91  110.6   36.2   74.3   1.78   1.58  115.6   29.8   44.5    1.6   1.58   1.06    0.00    0.91
 2008 203    94    92  110.6   38.8   71.7   1.78   1.52  115.6   28.8   42.9    1.5   1.52   1.06    0.00    0.91
 2008 204    95    93  110.6   41.5   69.1   1.78   1.48  115.6   27.9   41.1    1.5   1.48   1.06    0.00    0.91
 2008 205    96    94  110.6   44.0   66.5   1.78   1.42  115.6   26.8   39.7    1.4   1.42   1.05    0.00    0.91
 2008 206    97    95  110.6   46.7   63.9   1.77   1.35  115.6   25.6   38.3    1.4   1.35   1.03    0.00    0.91
 2008 207    98    96  110.6   49.3   61.3   1.77   1.30  115.6   24.6   36.6    1.3   1.30   1.04    0.00    0.91
 2008 208    99    97  110.6   51.9   58.7   1.77   1.25  115.6   23.7   34.9    1.3   1.25   1.05    0.00    0.91
 2008 209   100    98  110.6   54.5   56.0   1.77   1.21  115.6   22.9   33.1    1.2   1.21   1.05    0.00    0.91
 2008 210   101    99  110.6   57.2   53.4   1.77   1.15  115.6   21.8   31.6    1.1   1.15   1.05    0.00    0.91
 2008 211   102   100  111.4   59.8   51.7   1.77   1.11  116.6   21.1   30.6    1.1   1.11   1.07    0.00    0.94
 2008 212   103   101  112.6   62.4   50.2   1.76   1.09  117.7   20.6   29.5    1.1   1.09   1.07    0.00    0.97
 2008 213   104   102  114.0   65.0   49.0   1.76   1.07  119.1   20.2   28.8    1.1   1.07   1.07    0.00    1.00
 2008 214   105   103  115.3   67.6   47.7   1.76   1.05  120.4   19.8   27.9    1.0   1.05   1.07    0.00    1.03
 2008 215   106   104  116.9   70.2   46.7   1.76   1.02  122.1   19.4   27.3    1.0   1.02   1.07    0.00    1.06
 2008 216   107   105  117.6   72.7   44.9   1.76   1.00  122.8   18.9   26.0    1.0   1.00   1.07    0.00    1.09
 2008 217   108   106  117.6   72.7   44.9   1.76   1.00  122.8   18.9   26.0    1.0   1.00   1.07    0.00    1.09
 2008 218   109   107  117.6   72.7   44.9   1.76   1.00  122.8   18.9   26.0    1.0   1.00   1.07    0.00    1.09
 2008 219   110   108  117.6   72.7   44.9   1.76   1.00  122.8   18.9   26.0    1.0   1.00   1.07    0.00    1.09
 2008 220   111   109  117.6   72.7   44.9   1.76   1.00  122.8   18.9   26.0    1.0   1.00   1.07    0.00    1.09
 2008 221   112   110  117.6   72.7   44.9   1.76   1.00  122.8   18.9   26.0    1.0   1.00   1.07    0.00    1.09
 2008 222   113   111  117.6   72.7   44.9   1.76   1.00  122.8   18.9   26.0    1.0   1.00   1.07    0.00    1.09
 2008 223   114   112  117.6   72.7   44.9   1.76   1.00  122.8   18.9   26.0    1.0   1.00   1.07    0.00    1.09
 2008 224   115   113  117.6   72.7   44.9   1.76   1.00  122.8   18.9   26.0    1.0   1.00   1.07    0.00    1.09
 2008 225   116   114  117.6   72.7   44.9   1.76   1.00  122.8   18.9   26.0    1.0   1.00   1.07    0.00    1.09
 2008 226   117   115  117.6   72.7   44.9   1.76   1.00  122.8   18.9   26.0    1.0   1.00   1.07    0.00    1.09
 2008 227   118   116  117.6   72.7   44.9   1.76   1.00  122.8   18.9   26.0    1.0   1.00   1.07    0.00    1.09
 2008 228   119   117  117.6   72.7   44.9   1.76   1.00  122.8   18.9   26.0    1.0   1.00   1.07    0.00    1.09
 2008 229   120   118  117.6   72.7   44.9   1.76   1.00  122.8   18.9   26.0    1.0   1.00   1.07    0.00    1.09
 2008 230   121   119  117.6   72.7   44.9   1.76   1.00  122.8   18.9   26.0    1.0   1.00   1.07    0.00    1.09
 2008 231   122   120  117.6   72.7   44.9   1.76   1.00  122.8   18.9   26.0    1.0   1.00   1.07    0.00    1.09
 2008 232   123   121  117.6   72.7   44.9   1.76   1.00  122.8   18.9   26.0    1.0   1.00   1.07    0.00    1.09
 2008 233   124   122  117.6   72.7   44.9   1.76   1.00  122.8   18.9   26.0    1.0   1.00   1.07    0.00    1.09
 2008 234   125   123  117.6   72.7   44.9   1.76   1.00  122.8   18.9   26.0    1.0   1.00   1.07    0.00    1.09
 2008 235   126   124  117.6   72.7   44.9   1.76   1.00  122.8   18.9   26.0    1.0   1.00   1.07    0.00    1.09
 2008 236   127   125  117.6   72.7   44.9   1.76   1.00  122.8   18.9   26.0    1.0   1.00   1.07    0.00    1.09
 2008 237   128   126  117.6   72.7   44.9   1.76   1.00  122.8   18.9   26.0    1.0   1.00   1.07    0.00    1.09
 2008 238   129   127  117.6   72.7   44.9   1.76   1.00  122.8   18.9   26.0    1.0   1.00   1.07    0.00    1.09
 2008 239   130   128  117.6   72.7   44.9   1.76   1.00  122.8   18.9   26.0    1.0   1.00   1.07    0.00    1.09
 2008 240   131   129  117.6   72.7   44.9   1.76   1.00  122.8   18.9   26.0    1.0   1.00   1.07    0.00    1.09
 2008 241   132   130  117.6   72.7   44.9   1.76   1.00  122.8   18.9   26.0    1.0   1.00   1.07    0.00    1.09
 2008 242   133   131  117.6   72.7   44.9   1.76   1.00  122.8   18.9   26.0    1.0   1.00   1.07    0.00    1.09
 2008 243   134   132  117.6   72.7   44.9   1.76   1.00  122.8   18.9   26.0    1.0   1.00   1.07    0.00    1.09
 2008 244   135   133  117.6   72.7   44.9   1.76   1.00  122.8   18.9   26.0    1.0   1.00   1.07    0.00    1.09
 2008 245   136   134  117.6   72.7   44.9   1.76   1.00  122.8   18.9   26.0    1.0   1.00   1.07    0.00    1.09
 2008 246   137   135  117.6   72.7   44.9   1.76   1.00  122.8   18.9   26.0    1.0   1.00   1.07    0.00    1.09
 2008 247   138   136  117.6   72.7   44.9   1.76   1.00  122.8   18.9   26.0    1.0   1.00   1.07    0.00    1.09
 2008 248   139   137  117.6   72.7   44.9   1.76   1.00  122.8   18.9   26.0    1.0   1.00   1.07    0.00    1.09
 2008 249   140   138  117.6   72.7   44.9   1.76   1.00  122.8   18.9   26.0    1.0   1.00   1.07    0.00    1.09
 2008 250   141   139  117.6   72.7   44.9   1.76   1.00  122.8   18.9   26.0    1.0   1.00   1.07    0.00    1.09
 2008 251   142   140  117.6   72.7   44.9   1.76   1.00  122.8   18.9   26.0    1.0   1.00   1.07    0.00    1.09
 2008 252   143   141  117.6   72.7   44.9   1.76   1.00  122.8   18.9   26.0    1.0   1.00   1.07    0.00    1.09
 2008 253   144   142  117.6   72.7   44.9   1.76   1.00  122.8   18.9   26.0    1.0   1.00   1.07    0.00    1.09
 2008 254   145   143  117.6   72.7   44.9   1.76   1.00  122.8   18.9   26.0    1.0   1.00   1.07    0.00    1.09
 2008 255   146   144  117.6   72.7   44.9   1.76   1.00  122.8   18.9   26.0    1.0   1.00   1.07    0.00    1.09
 2008 256   147   145  117.6   72.7   44.9   1.76   1.00  122.8   18.9   26.0    1.0   1.00   1.07    0.00    1.09
