*SOIL INORGANIC N BALANCE

*DSSAT Cropping System Model Ver. 4.7.2.000 -release      OCT 15, 2021; 17:59:33
                                                                                
*RUN   1        :             CSM335_date_1 MZCER047 ITSA1301    1              
 MODEL          : MZCER047 - Maize                                              
 EXPERIMENT     : ITSA1301 SG CALIBRATION SETUP OF SORGHUM SOWING DATES         
 DATA PATH      :                                                               
 TREATMENT  1   :             CSM335_date_1 MZCER047                            
  


!SOIL INORGANIC N BALANCE                         Initial               Final
!                                                Year/Doy            Year/Doy
!                                                2008/110            2008/256
!                                               (kg[N]/ha)          (kg[N]/ha)
! Soil N state variables:
!   Soil NO3                                        49.64              143.27
!   Soil NH4                                         8.76                3.04
!   Soil Urea                                        0.00                0.00
!   Soil N gases                                     0.00                0.05

! N additions:
!   Fertilizer N                                    80.00
!   Mineralized N                                  239.07

! N subtractions:
!   N immobilized                                                       75.11
!   N leached                                                           32.87
!   N loss to tile drainage                                              0.00
!   N Uptake From Soil                                                 122.78
!   NH3 loss                                                             0.00
!   N2O loss                                                             0.22
!   N2 loss                                                              0.02
!   NO loss                                                              0.11

!   Total N balance                                377.47              377.47
!   Balance                                                             0.000
