*SOIL TEMPERATURE OUTPUT FILE (DAILY)

*DSSAT Cropping System Model Ver. 4.7.2.000 -release      OCT 15, 2021; 17:59:33
                                                                                
*RUN   1        :             CSM335_date_1 MZCER047 ITSA1301    1              
 MODEL          : MZCER047 - Maize                                              
 EXPERIMENT     : ITSA1301 SG CALIBRATION SETUP OF SORGHUM SOWING DATES         
 DATA PATH      :                                                               
 TREATMENT  1   :             CSM335_date_1 MZCER047                            
  
! TAV  =    27.7
! TAMP =     5.2
!               Temperature (oC) by soil depth (cm):
!               Surface     0-5    5-15   15-30   30-53   53-77  77-100
@YEAR DOY   DAS    TS0D    TS1D    TS2D    TS3D    TS4D    TS5D    TS6D    
 2008 110     1    33.5    33.4    33.0    32.4    31.7    30.9    30.2
 2008 111     2    33.9    33.8    33.4    32.8    31.9    31.1    30.4
 2008 112     3    33.8    33.7    33.3    32.7    31.8    31.0    30.3
 2008 113     4    33.7    33.6    33.3    32.9    32.3    31.6    31.0
 2008 114     5    33.2    33.1    32.8    32.3    31.7    31.0    30.5
 2008 115     6    33.0    32.9    32.6    32.1    31.5    30.8    30.2
 2008 116     7    32.1    32.0    31.7    31.3    30.7    30.1    29.6
 2008 117     8    31.8    31.7    31.4    31.0    30.5    29.9    29.4
 2008 118     9    31.5    31.4    31.2    30.8    30.3    29.8    29.4
 2008 119    10    31.9    31.8    31.6    31.2    30.7    30.2    29.8
 2008 120    11    31.8    31.7    31.5    31.1    30.6    30.1    29.7
 2008 121    12    32.3    32.2    32.0    31.5    31.0    30.4    29.9
 2008 122    13    32.0    31.9    31.7    31.2    30.7    30.1    29.6
 2008 123    14    32.0    32.0    31.8    31.5    31.0    30.5    30.1
 2008 124    15    31.9    31.8    31.6    31.3    30.9    30.4    30.0
 2008 125    16    31.7    31.7    31.5    31.1    30.7    30.2    29.8
 2008 126    17    31.4    31.4    31.2    30.9    30.5    30.1    29.7
 2008 127    18    32.0    32.0    31.8    31.5    31.1    30.6    30.2
 2008 128    19    32.1    32.1    31.9    31.6    31.1    30.7    30.2
 2008 129    20    32.4    32.4    32.2    31.8    31.4    30.8    30.4
 2008 130    21    32.5    32.4    32.2    31.9    31.4    30.9    30.4
 2008 131    22    32.7    32.7    32.4    32.1    31.6    31.0    30.6
 2008 132    23    32.5    32.4    32.2    31.9    31.4    30.9    30.5
 2008 133    24    32.4    32.3    32.1    31.8    31.3    30.8    30.3
 2008 134    25    32.1    32.0    31.8    31.5    31.0    30.5    30.1
 2008 135    26    31.6    31.6    31.4    31.1    30.6    30.2    29.8
 2008 136    27    31.5    31.4    31.2    30.9    30.5    30.0    29.6
 2008 137    28    31.4    31.4    31.2    30.9    30.5    30.0    29.6
 2008 138    29    31.4    31.3    31.1    30.8    30.4    29.9    29.5
 2008 139    30    31.4    31.4    31.2    31.0    30.6    30.3    29.9
 2008 140    31    31.8    31.8    31.6    31.3    30.9    30.5    30.1
 2008 141    32    31.9    31.9    31.7    31.4    31.0    30.6    30.2
 2008 142    33    32.2    32.1    31.9    31.7    31.2    30.8    30.3
 2008 143    34    32.2    32.2    32.0    31.7    31.2    30.8    30.3
 2008 144    35    32.0    32.0    31.8    31.5    31.0    30.6    30.1
 2008 145    36    31.8    31.7    31.6    31.3    30.9    30.5    30.1
 2008 146    37    31.6    31.6    31.4    31.1    30.8    30.3    30.0
 2008 147    38    31.0    31.0    30.8    30.6    30.2    29.8    29.5
 2008 148    39    30.9    30.8    30.7    30.4    30.1    29.7    29.3
 2008 149    40    30.7    30.6    30.5    30.3    30.0    29.7    29.4
 2008 150    41    30.4    30.3    30.2    30.0    29.8    29.5    29.2
 2008 151    42    30.3    30.2    30.1    29.9    29.6    29.3    29.0
 2008 152    43    30.5    30.5    30.3    30.1    29.8    29.5    29.2
 2008 153    44    30.4    30.4    30.2    30.0    29.7    29.4    29.1
 2008 154    45    30.3    30.2    30.1    29.9    29.6    29.3    29.0
 2008 155    46    30.6    30.5    30.4    30.2    30.0    29.7    29.4
 2008 156    47    30.1    30.0    29.9    29.8    29.5    29.3    29.0
 2008 157    48    29.8    29.8    29.7    29.5    29.3    29.0    28.8
 2008 158    49    30.1    30.0    29.9    29.7    29.5    29.2    28.9
 2008 159    50    30.3    30.3    30.2    30.0    29.7    29.4    29.1
 2008 160    51    30.2    30.2    30.0    29.9    29.6    29.3    29.0
 2008 161    52    30.7    30.7    30.6    30.3    30.0    29.7    29.4
 2008 162    53    31.2    31.1    31.0    30.7    30.4    30.0    29.6
 2008 163    54    30.7    30.6    30.5    30.3    29.9    29.6    29.2
 2008 164    55    30.6    30.5    30.4    30.1    29.8    29.4    29.1
 2008 165    56    30.4    30.4    30.3    30.0    29.7    29.4    29.1
 2008 166    57    30.2    30.1    30.0    29.9    29.7    29.4    29.2
 2008 167    58    29.4    29.4    29.3    29.2    29.0    28.8    28.7
 2008 168    59    29.1    29.1    29.0    28.9    28.7    28.6    28.4
 2008 169    60    28.6    28.5    28.5    28.4    28.2    28.1    27.9
 2008 170    61    28.5    28.5    28.4    28.3    28.2    28.0    27.9
 2008 171    62    28.4    28.4    28.3    28.3    28.1    28.0    27.8
 2008 172    63    28.9    28.9    28.8    28.7    28.5    28.3    28.2
 2008 173    64    29.6    29.5    29.5    29.3    29.1    28.9    28.7
 2008 174    65    30.1    30.0    29.9    29.8    29.5    29.2    29.0
 2008 175    66    30.0    30.0    29.8    29.7    29.4    29.2    28.9
 2008 176    67    30.1    30.0    29.9    29.7    29.5    29.2    28.9
 2008 177    68    30.1    30.1    30.0    29.8    29.6    29.3    29.0
 2008 178    69    30.1    30.0    29.9    29.8    29.5    29.2    28.9
 2008 179    70    30.2    30.1    30.0    29.8    29.6    29.3    29.0
 2008 180    71    30.2    30.2    30.1    29.9    29.6    29.3    29.0
 2008 181    72    30.2    30.2    30.1    29.9    29.6    29.3    29.0
 2008 182    73    30.0    29.9    29.8    29.6    29.4    29.1    28.8
 2008 183    74    29.9    29.9    29.8    29.6    29.3    29.0    28.7
 2008 184    75    29.9    29.9    29.8    29.6    29.3    29.0    28.7
 2008 185    76    30.1    30.1    29.9    29.7    29.4    29.1    28.8
 2008 186    77    29.9    29.9    29.8    29.6    29.4    29.1    28.9
 2008 187    78    29.4    29.4    29.3    29.1    28.9    28.7    28.4
 2008 188    79    29.1    29.1    29.0    28.9    28.7    28.5    28.3
 2008 189    80    28.9    28.8    28.8    28.6    28.5    28.3    28.1
 2008 190    81    28.6    28.5    28.5    28.4    28.2    28.0    27.9
 2008 191    82    28.4    28.4    28.4    28.3    28.1    27.9    27.8
 2008 192    83    29.0    29.0    28.9    28.8    28.6    28.3    28.1
 2008 193    84    29.5    29.4    29.3    29.1    28.9    28.6    28.3
 2008 194    85    29.9    29.8    29.7    29.5    29.2    28.8    28.5
 2008 195    86    30.0    30.0    29.8    29.6    29.2    28.8    28.5
 2008 196    87    30.2    30.2    30.0    29.7    29.4    28.9    28.6
 2008 197    88    30.2    30.1    30.0    29.9    29.6    29.3    29.0
 2008 198    89    30.0    30.0    29.9    29.7    29.4    29.1    28.9
 2008 199    90    29.8    29.8    29.7    29.5    29.3    29.0    28.7
 2008 200    91    29.4    29.4    29.3    29.2    29.0    28.7    28.5
 2008 201    92    29.3    29.3    29.2    29.1    28.9    28.7    28.5
 2008 202    93    28.4    28.4    28.4    28.3    28.2    28.1    28.0
 2008 203    94    28.3    28.3    28.3    28.2    28.2    28.0    27.9
 2008 204    95    28.2    28.2    28.2    28.1    28.1    28.0    27.9
 2008 205    96    28.9    28.9    28.8    28.8    28.7    28.5    28.3
 2008 206    97    28.9    28.9    28.8    28.7    28.6    28.5    28.3
 2008 207    98    29.3    29.2    29.2    29.1    28.9    28.7    28.5
 2008 208    99    29.3    29.3    29.2    29.2    29.1    28.9    28.8
 2008 209   100    29.3    29.3    29.2    29.2    29.1    28.9    28.8
 2008 210   101    29.0    29.0    29.0    28.9    28.8    28.7    28.6
 2008 211   102    28.6    28.6    28.6    28.5    28.5    28.4    28.3
 2008 212   103    28.8    28.8    28.7    28.7    28.6    28.6    28.5
 2008 213   104    28.6    28.6    28.6    28.5    28.5    28.4    28.4
 2008 214   105    28.2    28.2    28.2    28.2    28.2    28.2    28.1
 2008 215   106    28.3    28.3    28.3    28.3    28.3    28.2    28.2
 2008 216   107    28.8    28.8    28.8    28.8    28.7    28.6    28.5
 2008 217   108    29.0    29.0    28.9    28.9    28.8    28.7    28.6
 2008 218   109    29.1    29.1    29.1    29.0    28.9    28.8    28.7
 2008 219   110    29.0    29.0    29.0    29.0    28.9    28.8    28.7
 2008 220   111    28.7    28.7    28.7    28.7    28.6    28.5    28.4
 2008 221   112    28.7    28.7    28.7    28.7    28.6    28.6    28.5
 2008 222   113    28.9    28.9    28.9    28.9    28.8    28.7    28.6
 2008 223   114    29.2    29.2    29.2    29.1    29.0    28.9    28.7
 2008 224   115    29.5    29.5    29.4    29.4    29.3    29.1    28.9
 2008 225   116    30.0    30.0    29.9    29.8    29.6    29.4    29.2
 2008 226   117    29.6    29.6    29.6    29.5    29.3    29.1    28.9
 2008 227   118    29.4    29.4    29.3    29.3    29.1    28.9    28.7
 2008 228   119    28.9    28.9    28.9    28.8    28.8    28.6    28.5
 2008 229   120    28.8    28.8    28.8    28.8    28.7    28.6    28.4
 2008 230   121    28.7    28.7    28.7    28.7    28.7    28.5    28.4
 2008 231   122    29.1    29.1    29.1    29.1    28.9    28.7    28.5
 2008 232   123    29.6    29.6    29.5    29.4    29.2    29.0    28.7
 2008 233   124    29.8    29.8    29.8    29.6    29.4    29.1    28.8
 2008 234   125    30.1    30.1    30.0    29.9    29.6    29.3    29.0
 2008 235   126    29.9    29.9    29.9    29.7    29.5    29.2    28.9
 2008 236   127    30.0    30.0    29.9    29.8    29.5    29.2    28.9
 2008 237   128    29.9    29.8    29.8    29.7    29.4    29.1    28.8
 2008 238   129    30.2    30.1    30.1    29.9    29.7    29.3    29.0
 2008 239   130    30.1    30.1    30.1    29.9    29.7    29.3    29.0
 2008 240   131    29.9    29.9    29.8    29.7    29.5    29.1    28.8
 2008 241   132    29.5    29.5    29.5    29.4    29.3    29.1    28.9
 2008 242   133    29.2    29.2    29.2    29.2    29.1    29.0    28.9
 2008 243   134    28.9    28.9    28.9    28.9    28.9    28.9    28.8
 2008 244   135    28.7    28.7    28.7    28.7    28.7    28.7    28.6
 2008 245   136    29.0    29.0    29.0    29.0    29.0    29.0    28.9
 2008 246   137    29.0    29.0    29.0    29.0    29.0    29.0    28.9
 2008 247   138    28.9    28.9    29.0    29.0    29.0    29.0    28.9
 2008 248   139    28.9    28.9    28.9    29.0    29.0    28.9    28.9
 2008 249   140    29.3    29.3    29.3    29.3    29.3    29.2    29.1
 2008 250   141    29.5    29.5    29.5    29.5    29.4    29.3    29.2
 2008 251   142    29.8    29.8    29.8    29.8    29.7    29.6    29.4
 2008 252   143    30.2    30.2    30.2    30.1    30.0    29.8    29.6
 2008 253   144    30.5    30.5    30.5    30.4    30.2    30.0    29.7
 2008 254   145    30.6    30.6    30.5    30.4    30.2    30.0    29.7
 2008 255   146    30.7    30.7    30.6    30.5    30.3    30.0    29.7
 2008 256   147    30.8    30.7    30.7    30.5    30.3    30.0    29.6
