
*SOIL N BALANCE - CENTURY ROUTINES

*DSSAT Cropping System Model Ver. 4.7.2.000 -release      OCT 15, 2021; 17:59:33

!                     |------------------- N State Variables -------------------| |------------ N Additions ------------| |--------------- N Subtractions ----------------| |-Mineralization--|
!                                                                                   Harvest   Applied                                   Tile-     N gas     Flood    Miner-    Immob-  Seasonal
!                       Surface      SOM1      SOM2      SOM3    Litter     Inorg   Residue   Residue  Fertiliz   Senesed   Leached   drained    Uptake    Losses    Losses    alized    ilized   Balance
@Run FILEX         TN      SN0D     S1NTD     S2NTD     S3NTD      LNTD      NIAD      HRNH     RESNC      NICM     SNNTC      NLCM      TDFC      NUCM     NGasC      RNRO      NMNC      NIMC   SEASBAL
   1 ITSA1301.SGX INIT     0.00    274.25   3065.17  24115.91      4.50      0.00
   1 ITSA1301.SGX   1      0.00    229.31   2970.98  24096.30      0.38    146.36      0.00      0.00     80.00      1.09     32.87      0.00    122.78      0.35      0.00    239.07     75.11     -0.00
