*SOIL-PLANT-ATMOSPHERE MODULE OUTPUT FILE

*DSSAT Cropping System Model Ver. 4.7.2.000 -release      OCT 15, 2021; 17:59:33
                                                                                
*RUN   1        :             CSM335_date_1 MZCER047 ITSA1301    1              
 MODEL          : MZCER047 - Maize                                              
 EXPERIMENT     : ITSA1301 SG CALIBRATION SETUP OF SORGHUM SOWING DATES         
 DATA PATH      :                                                               
 TREATMENT  1   :             CSM335_date_1 MZCER047                            
  
!                                                                                                                                                Soil evaporation (mm/d) by soil depth (cm):
!                                                                                                                                                0-5    5-15   15-30   30-45   45-60
@YEAR DOY   DAS   SRAA  TMAXA  TMINA   EOAA   EOPA   EOSA   ETAA   EPAA   ESAA   EFAA   EMAA    EOAC    ETAC    EPAC    ESAC    EFAC    EMAC    ES1D    ES2D    ES3D    ES4D    ES5D   TRWUD
 2014 175     1  19.90  31.80  24.20  4.809  0.000  4.809  0.586  0.000  0.586  0.000  0.000    4.81    0.59    0.00    0.59    0.00    0.00   0.494   0.063   0.019   0.007   0.004   0.000
 2014 176     2  21.70  33.80  25.20  5.356  0.000  5.356  0.540  0.000  0.540  0.000  0.000   10.16    1.13    0.00    1.13    0.00    0.00   0.448   0.063   0.019   0.007   0.004   0.000
 2014 177     3  21.00  34.40  26.50  5.231  0.000  5.231  0.499  0.000  0.499  0.000  0.000   15.40    1.62    0.00    1.62    0.00    0.00   0.407   0.062   0.019   0.007   0.004   0.000
 2014 178     4  20.70  33.50  24.10  5.002  0.000  5.002  0.663  0.000  0.663  0.000  0.000   20.40    2.29    0.00    2.29    0.00    0.00   0.572   0.062   0.019   0.007   0.004   0.000
 2014 179     5  25.30  33.60  23.80  6.403  0.000  6.403  0.813  0.000  0.813  0.000  0.000   26.80    3.10    0.00    3.10    0.00    0.00   0.722   0.062   0.019   0.007   0.004   0.000
 2014 180     6  21.70  34.30  25.40  5.542  0.000  5.542  0.787  0.000  0.787  0.000  0.000   32.34    3.89    0.00    3.89    0.00    0.00   0.697   0.061   0.019   0.007   0.004   0.000
 2014 181     7  24.00  33.50  24.90  6.075  0.000  6.075  0.764  0.000  0.764  0.000  0.000   38.42    4.65    0.00    4.65    0.00    0.00   0.674   0.061   0.019   0.007   0.004   0.000
 2014 182     8  19.20  35.00  25.30  4.906  0.000  4.906  0.840  0.000  0.840  0.000  0.000   43.32    5.49    0.00    5.49    0.00    0.00   0.750   0.061   0.019   0.007   0.004   0.000
 2014 183     9  16.30  31.80  25.00  4.135  0.000  4.135  0.909  0.000  0.909  0.000  0.000   47.46    6.40    0.00    6.40    0.00    0.00   0.819   0.060   0.019   0.007   0.004   0.000
 2014 184    10  19.50  34.50  25.80  5.062  0.000  5.062  0.833  0.000  0.833  0.000  0.000   52.52    7.23    0.00    7.23    0.00    0.00   0.744   0.060   0.019   0.007   0.004   0.000
 2014 185    11  21.20  31.70  22.90  5.196  0.000  5.196  1.129  0.000  1.129  0.000  0.000   57.72    8.36    0.00    8.36    0.00    0.00   1.033   0.067   0.019   0.007   0.004   0.000
 2014 186    12  20.30  31.70  24.50  5.442  0.000  5.442  3.559  0.000  3.559  0.000  0.000   63.16   11.92    0.00   11.92    0.00    0.00   1.827   0.676   0.467   0.329   0.261   0.000
 2014 187    13  16.00  30.50  24.80  4.123  0.000  4.123  1.164  0.000  1.164  0.000  0.000   67.28   13.09    0.00   13.09    0.00    0.00   1.061   0.075   0.018   0.007   0.003   0.000
 2014 188    14  13.90  30.90  22.60  3.499  0.000  3.499  1.066  0.000  1.066  0.000  0.000   70.78   14.15    0.00   14.15    0.00    0.00   0.963   0.074   0.018   0.007   0.003   0.000
 2014 189    15  17.60  31.40  24.20  4.453  0.000  4.453  0.976  0.000  0.976  0.000  0.000   75.23   15.13    0.00   15.13    0.00    0.00   0.874   0.074   0.018   0.007   0.003   0.000
 2014 190    16  17.00  31.40  24.50  4.266  0.000  4.266  0.895  0.000  0.895  0.000  0.000   79.50   16.02    0.00   16.02    0.00    0.00   0.794   0.074   0.018   0.007   0.003   0.000
 2014 191    17  24.00  34.60  25.50  6.205  0.018  6.187  0.844  0.018  0.827  0.000  0.000   85.70   16.87    0.02   16.85    0.00    0.00   0.725   0.073   0.018   0.007   0.003   0.002
 2014 192    18  20.20  33.70  26.50  5.170  0.032  5.138  0.795  0.032  0.763  0.000  0.000   90.87   17.66    0.05   17.61    0.00    0.00   0.662   0.073   0.018   0.007   0.003   0.003
 2014 193    19  18.60  33.90  26.20  4.722  0.047  4.675  0.747  0.047  0.700  0.000  0.000   95.59   18.41    0.10   18.31    0.00    0.00   0.600   0.072   0.018   0.007   0.003   0.005
 2014 194    20  17.30  32.80  26.10  4.308  0.097  4.210  0.758  0.097  0.661  0.000  0.000   99.90   19.17    0.19   18.97    0.00    0.00   0.561   0.072   0.018   0.007   0.003   0.010
 2014 195    21  18.60  33.20  25.30  4.615  0.171  4.442  0.794  0.171  0.622  0.000  0.000  104.52   19.96    0.36   19.60    0.00    0.00   0.523   0.071   0.018   0.007   0.003   0.017
 2014 196    22  25.00  35.70  24.60  6.489  0.352  6.133  0.931  0.352  0.579  0.000  0.000  111.01   20.89    0.72   20.18    0.00    0.00   0.481   0.070   0.018   0.007   0.003   0.035
 2014 197    23  18.00  33.70  25.50  4.451  0.320  4.126  0.855  0.320  0.535  0.000  0.000  115.46   21.75    1.04   20.71    0.00    0.00   0.438   0.068   0.018   0.007   0.003   0.032
 2014 198    24  15.40  32.00  25.40  3.719  0.314  3.401  0.804  0.314  0.490  0.000  0.000  119.18   22.55    1.35   21.20    0.00    0.00   0.396   0.067   0.018   0.007   0.003   0.031
 2014 199    25  12.90  28.60  23.50  2.956  0.284  2.669  1.265  0.284  0.981  0.000  0.000  122.13   23.82    1.64   22.18    0.00    0.00   0.880   0.073   0.018   0.007   0.003   0.028
 2014 200    26  22.00  32.70  23.20  5.863  0.626  5.230  4.203  0.626  3.577  0.000  0.000  128.00   28.02    2.26   25.76    0.00    0.00   1.839   0.719   0.443   0.321   0.256   0.063
 2014 201    27  20.90  33.50  26.40  5.564  0.702  4.854  1.851  0.702  1.149  0.000  0.000  133.56   29.87    2.96   26.91    0.00    0.00   1.044   0.078   0.017   0.007   0.003   0.070
 2014 202    28  19.50  33.20  26.60  5.109  0.748  4.354  1.772  0.748  1.025  0.000  0.000  138.67   31.64    3.71   27.93    0.00    0.00   0.922   0.076   0.017   0.007   0.003   0.075
 2014 203    29   8.40  29.50  21.50  2.018  0.335  1.678  1.658  0.335  1.322  0.000  0.000  140.69   33.30    4.05   29.25    0.00    0.00   1.172   0.121   0.020   0.007   0.003   0.034
 2014 204    30  17.30  30.40  21.00  4.446  0.777  3.659  4.436  0.777  3.659  0.000  0.000  145.13   37.74    4.82   32.91    0.00    0.00   1.562   1.143   0.489   0.257   0.207   0.078
 2014 205    31  18.60  31.30  23.60  4.762  0.925  3.826  2.219  0.925  1.294  0.000  0.000  149.90   39.96    5.75   34.21    0.00    0.00   1.111   0.149   0.025   0.006   0.003   0.093
 2014 206    32  14.90  29.70  25.30  3.744  0.809  2.926  1.978  0.809  1.169  0.000  0.000  153.64   41.93    6.56   35.38    0.00    0.00   0.989   0.146   0.024   0.006   0.003   0.081
 2014 207    33  15.50  30.80  24.60  3.879  0.927  2.941  2.093  0.927  1.165  0.000  0.000  157.52   44.03    7.48   36.54    0.00    0.00   0.988   0.143   0.024   0.006   0.003   0.093
 2014 208    34  22.50  33.80  23.20  5.799  1.541  4.242  2.695  1.541  1.155  0.000  0.000  163.32   46.72    9.03   37.70    0.00    0.00   0.981   0.140   0.024   0.006   0.003   0.154
 2014 209    35  16.20  32.40  26.80  4.164  1.268  2.883  2.319  1.268  1.051  0.000  0.000  167.48   49.04   10.29   38.75    0.00    0.00   0.882   0.136   0.023   0.006   0.003   0.127
 2014 210    36  12.40  31.60  25.40  3.114  1.038  2.065  2.006  1.038  0.968  0.000  0.000  170.60   51.05   11.33   39.72    0.00    0.00   0.803   0.132   0.023   0.006   0.003   0.104
 2014 211    37  22.90  34.40  25.20  5.865  2.084  3.760  3.269  2.084  1.185  0.000  0.000  176.46   54.32   13.42   40.90    0.00    0.00   1.019   0.135   0.022   0.006   0.003   0.208
 2014 212    38  16.70  32.30  25.10  4.333  1.706  2.608  4.315  1.706  2.608  0.000  0.000  180.80   58.63   15.12   43.51    0.00    0.00   1.164   0.770   0.337   0.185   0.152   0.171
 2014 213    39  16.50  31.80  26.00  4.275  1.802  2.454  3.150  1.802  1.349  0.000  0.000  185.07   61.78   16.92   44.86    0.00    0.00   1.182   0.137   0.021   0.006   0.003   0.180
 2014 214    40   7.70  29.30  24.20  1.897  0.848  1.039  1.887  0.848  1.039  0.000  0.000  186.97   63.67   17.77   45.90    0.00    0.00   0.450   0.323   0.141   0.068   0.056   0.085
 2014 215    41  13.30  30.00  24.30  3.396  1.558  1.821  3.379  1.558  1.821  0.000  0.000  190.36   67.05   19.33   47.72    0.00    0.00   0.772   0.561   0.285   0.111   0.091   0.156
 2014 216    42  18.00  30.10  25.10  4.554  2.176  2.354  4.530  2.176  2.354  0.000  0.000  194.92   71.58   21.51   50.07    0.00    0.00   0.947   0.717   0.417   0.150   0.123   0.218
 2014 217    43  17.80  30.50  24.40  4.446  2.231  2.191  3.496  2.231  1.265  0.000  0.000  199.36   75.07   23.74   51.34    0.00    0.00   1.080   0.146   0.031   0.006   0.003   0.223
 2014 218    44  16.20  30.20  22.80  3.951  2.070  1.858  3.185  2.070  1.115  0.000  0.000  203.31   78.26   25.81   52.45    0.00    0.00   0.937   0.140   0.030   0.006   0.003   0.207
 2014 219    45  19.60  32.20  23.90  4.882  2.651  2.204  3.662  2.651  1.011  0.000  0.000  208.20   81.92   28.46   53.46    0.00    0.00   0.838   0.135   0.029   0.006   0.003   0.265
 2014 220    46  12.80  29.40  25.80  3.124  1.762  1.344  2.712  1.762  0.950  0.000  0.000  211.32   84.63   30.22   54.41    0.00    0.00   0.785   0.128   0.028   0.006   0.003   0.176
 2014 221    47  10.70  28.30  24.90  2.563  1.478  1.069  2.547  1.478  1.069  0.000  0.000  213.88   87.18   31.70   55.48    0.00    0.00   0.925   0.114   0.023   0.005   0.003   0.148
 2014 222    48  20.10  30.10  22.90  4.984  2.924  2.030  4.953  2.924  2.030  0.000  0.000  218.87   92.13   34.62   57.51    0.00    0.00   0.880   0.600   0.313   0.130   0.107   0.292
 2014 223    49  19.70  30.90  24.10  4.909  2.966  1.913  4.250  2.966  1.284  0.000  0.000  223.78   96.38   37.59   58.80    0.00    0.00   1.114   0.137   0.025   0.006   0.003   0.297
 2014 224    50  11.60  30.50  24.20  2.858  1.771  1.069  2.840  1.771  1.069  0.000  0.000  226.64   99.22   39.36   59.87    0.00    0.00   0.930   0.111   0.020   0.005   0.003   0.177
 2014 225    51  17.30  29.10  22.40  4.173  2.621  1.525  3.903  2.621  1.282  0.000  0.000  230.81  103.13   41.98   61.15    0.00    0.00   1.122   0.129   0.022   0.006   0.003   0.262
 2014 226    52  15.60  29.60  24.00  3.801  2.428  1.349  3.555  2.428  1.127  0.000  0.000  234.61  106.68   44.41   62.27    0.00    0.00   0.974   0.123   0.021   0.006   0.003   0.243
 2014 227    53  12.80  28.50  24.10  3.067  1.984  1.063  3.047  1.984  1.063  0.000  0.000  237.68  109.73   46.39   63.34    0.00    0.00   0.919   0.116   0.020   0.005   0.003   0.198
 2014 228    54   8.10  26.20  23.80  1.893  1.235  0.645  1.880  1.235  0.645  0.000  0.000  239.57  111.61   47.63   63.98    0.00    0.00   0.294   0.193   0.080   0.043   0.035   0.123
 2014 229    55  20.70  29.60  23.50  5.124  3.363  1.728  5.091  3.363  1.728  0.000  0.000  244.69  116.70   50.99   65.71    0.00    0.00   0.782   0.543   0.211   0.105   0.086   0.336
 2014 230    56  12.00  28.50  23.90  2.907  1.932  0.956  2.888  1.932  0.956  0.000  0.000  247.60  119.59   52.92   66.67    0.00    0.00   0.424   0.301   0.119   0.061   0.050   0.193
 2014 231    57  17.00  32.30  22.80  4.250  2.844  1.378  4.223  2.844  1.378  0.000  0.000  251.85  123.81   55.77   68.04    0.00    0.00   0.624   0.433   0.176   0.080   0.065   0.284
 2014 232    58  24.30  31.30  22.40  6.053  4.086  1.927  6.013  4.086  1.927  0.000  0.000  257.90  129.82   59.85   69.97    0.00    0.00   0.788   0.563   0.361   0.141   0.074   0.409
 2014 233    59  20.70  30.70  26.50  5.262  3.597  1.633  5.230  3.597  1.633  0.000  0.000  263.17  135.05   63.45   71.60    0.00    0.00   0.575   0.436   0.371   0.188   0.063   0.360
 2014 234    60  12.20  28.70  21.20  2.899  1.998  0.880  2.878  1.998  0.880  0.000  0.000  266.06  137.93   65.45   72.48    0.00    0.00   0.300   0.226   0.194   0.119   0.041   0.200
 2014 235    61  16.80  29.70  21.60  4.090  2.836  1.225  4.062  2.836  1.225  0.000  0.000  270.15  141.99   68.28   73.71    0.00    0.00   0.401   0.301   0.261   0.181   0.081   0.284
 2014 236    62  20.40  31.50  24.70  5.134  3.591  1.511  5.102  3.591  1.511  0.000  0.000  275.29  147.09   71.87   75.22    0.00    0.00   0.486   0.361   0.312   0.223   0.129   0.359
 2014 237    63  24.90  32.50  25.10  6.327  4.467  1.821  6.288  4.467  1.821  0.000  0.000  281.62  153.38   76.34   77.04    0.00    0.00   0.572   0.434   0.372   0.265   0.178   0.447
 2014 238    64   9.50  28.30  21.80  2.247  1.602  0.629  2.231  1.602  0.629  0.000  0.000  283.86  155.61   77.94   77.67    0.00    0.00   0.203   0.153   0.125   0.086   0.062   0.160
 2014 239    65  21.30  31.40  22.80  5.327  3.708  1.585  5.293  3.708  1.585  0.000  0.000  289.19  160.91   81.65   79.26    0.00    0.00   0.511   0.383   0.312   0.214   0.164   0.371
 2014 240    66  24.30  33.00  25.40  6.233  4.331  1.866  6.197  4.331  1.866  0.000  0.000  295.42  167.10   85.98   81.12    0.00    0.00   0.583   0.444   0.375   0.261   0.203   0.433
 2014 241    67  24.70  33.30  25.60  6.338  4.391  1.910  5.711  4.391  1.319  0.000  0.000  301.76  172.81   90.37   82.44    0.00    0.00   1.106   0.146   0.044   0.016   0.008   0.439
 2014 242    68  21.60  33.10  26.40  5.534  3.823  1.679  4.990  3.823  1.167  0.000  0.000  307.30  177.80   94.20   83.61    0.00    0.00   0.962   0.139   0.042   0.016   0.008   0.382
 2014 243    69  14.70  31.70  25.00  3.661  2.521  1.119  3.640  2.521  1.119  0.000  0.000  310.96  181.44   96.72   84.73    0.00    0.00   0.361   0.267   0.217   0.153   0.121   0.252
 2014 244    70  18.20  31.30  22.70  4.546  3.119  1.398  4.517  3.119  1.398  0.000  0.000  315.50  185.96   99.84   86.12    0.00    0.00   0.489   0.336   0.265   0.174   0.134   0.312
 2014 245    71  11.80  31.30  22.60  2.944  2.015  0.911  2.926  2.015  0.911  0.000  0.000  318.45  188.89  101.85   87.04    0.00    0.00   0.288   0.218   0.185   0.126   0.095   0.201
 2014 246    72  14.00  36.60  24.20  3.973  2.714  1.237  3.951  2.714  1.237  0.000  0.000  322.42  192.84  104.57   88.27    0.00    0.00   0.397   0.290   0.245   0.172   0.134   0.271
 2014 247    73  24.60  33.70  23.50  6.303  4.215  2.053  6.268  4.215  2.053  0.000  0.000  328.72  199.11  108.78   90.33    0.00    0.00   0.649   0.481   0.409   0.288   0.227   0.421
 2014 248    74   7.60  31.50  23.30  1.890  1.256  0.623  1.879  1.256  0.623  0.000  0.000  330.61  200.99  110.04   90.95    0.00    0.00   0.199   0.148   0.126   0.085   0.065   0.126
 2014 249    75  19.00  33.20  25.00  4.937  3.259  1.651  4.910  3.259  1.651  0.000  0.000  335.55  205.90  113.30   92.60    0.00    0.00   0.541   0.399   0.326   0.219   0.166   0.326
 2014 250    76  17.20  29.10  26.00  4.307  2.816  1.467  4.283  2.816  1.467  0.000  0.000  339.86  210.18  116.11   94.07    0.00    0.00   0.464   0.350   0.292   0.203   0.158   0.282
 2014 251    77  21.80  32.40  23.90  5.522  3.573  1.919  5.491  3.573  1.919  0.000  0.000  345.38  215.67  119.68   95.99    0.00    0.00   0.597   0.455   0.385   0.270   0.212   0.357
 2014 252    78  19.80  33.20  23.40  5.019  3.206  1.787  4.993  3.206  1.787  0.000  0.000  350.40  220.66  122.89   97.77    0.00    0.00   0.573   0.433   0.354   0.241   0.186   0.321
 2014 253    79   9.40  28.50  22.80  2.292  1.440  0.839  2.279  1.440  0.839  0.000  0.000  352.69  222.94  124.33   98.61    0.00    0.00   0.275   0.204   0.166   0.110   0.083   0.144
 2014 254    80  22.30  33.60  23.50  5.784  3.577  2.177  5.754  3.577  2.177  0.000  0.000  358.47  228.70  127.91  100.79    0.00    0.00   0.691   0.519   0.437   0.299   0.232   0.358
 2014 255    81  13.10  32.60  23.40  3.323  2.009  1.297  3.306  2.009  1.297  0.000  0.000  361.80  232.00  129.92  102.09    0.00    0.00   0.428   0.308   0.252   0.174   0.135   0.201
 2014 256    82  24.60  33.00  24.90  6.418  3.779  2.607  6.387  3.779  2.607  0.000  0.000  368.21  238.39  133.70  104.69    0.00    0.00   0.881   0.628   0.498   0.339   0.261   0.378
 2014 257    83  10.30  34.40  23.10  2.691  1.532  1.146  2.678  1.532  1.146  0.000  0.000  370.90  241.07  135.23  105.84    0.00    0.00   0.378   0.279   0.221   0.151   0.116   0.153
 2014 258    84  23.50  32.50  25.50  6.155  3.367  2.760  6.127  3.367  2.760  0.000  0.000  377.06  247.19  138.60  108.60    0.00    0.00   0.929   0.653   0.527   0.366   0.284   0.337
 2014 259    85  12.20  31.60  23.30  3.116  1.621  1.481  3.102  1.621  1.481  0.000  0.000  380.18  250.30  140.22  110.08    0.00    0.00   0.480   0.348   0.290   0.203   0.160   0.162
 2014 260    86  11.40  27.80  24.20  2.832  1.391  1.428  2.819  1.391  1.428  0.000  0.000  383.01  253.12  141.61  111.51    0.00    0.00   0.461   0.326   0.279   0.201   0.162   0.139
 2014 261    87  14.80  30.60  23.60  3.767  1.735  2.017  3.751  1.735  2.017  0.000  0.000  386.77  256.87  143.34  113.52    0.00    0.00   0.659   0.470   0.389   0.276   0.222   0.173
 2014 262    88  23.70  31.80  24.50  6.195  2.619  3.552  6.172  2.619  3.552  0.000  0.000  392.97  263.04  145.96  117.08    0.00    0.00   1.115   0.835   0.701   0.500   0.402   0.262
 2014 263    89  22.00  32.10  24.90  5.680  2.402  3.257  5.658  2.402  3.257  0.000  0.000  398.65  268.70  148.36  120.33    0.00    0.00   1.053   0.757   0.636   0.450   0.361   0.240
 2014 264    90  21.10  34.30  26.50  5.686  2.406  3.261  5.666  2.406  3.261  0.000  0.000  404.34  274.36  150.77  123.59    0.00    0.00   1.113   0.745   0.618   0.437   0.348   0.241
 2014 265    91  21.90  33.40  25.20  5.802  2.453  3.327  5.780  2.453  3.327  0.000  0.000  410.14  280.14  153.22  126.92    0.00    0.00   1.075   0.780   0.650   0.458   0.363   0.245
 2014 266    92  20.90  33.80  26.50  5.531  2.339  3.172  5.511  2.339  3.172  0.000  0.000  415.67  285.65  155.56  130.09    0.00    0.00   1.062   0.735   0.611   0.427   0.337   0.234
 2014 267    93  25.10  33.80  26.00  6.719  2.842  3.853  6.695  2.842  3.853  0.000  0.000  422.39  292.35  158.40  133.95    0.00    0.00   1.262   0.904   0.757   0.521   0.410   0.284
 2014 268    94  23.80  33.70  25.60  6.242  2.640  3.580  3.974  2.640  1.334  0.000  0.000  428.63  296.32  161.04  135.28    0.00    0.00   1.124   0.143   0.044   0.016   0.008   0.264
 2014 269    95  23.30  34.80  23.90  6.061  2.562  3.476  3.774  2.562  1.212  0.000  0.000  434.69  300.10  163.60  136.49    0.00    0.00   1.006   0.140   0.042   0.015   0.008   0.256
 2014 270    96   8.60  30.20  20.30  2.063  0.871  1.183  2.054  0.871  1.183  0.000  0.000  436.75  302.15  164.48  137.68    0.00    0.00   0.371   0.296   0.237   0.159   0.121   0.087
 2014 271    97  23.80  32.70  23.00  6.228  2.632  3.572  6.204  2.632  3.572  0.000  0.000  442.98  308.35  167.11  141.25    0.00    0.00   1.148   0.869   0.716   0.480   0.359   0.263
 2014 272    98  24.10  34.60  25.80  6.428  2.718  3.686  6.404  2.718  3.686  0.000  0.000  449.41  314.76  169.83  144.93    0.00    0.00   1.136   0.877   0.747   0.523   0.403   0.272
 2014 273    99  18.00  33.20  22.70  4.592  1.940  2.633  4.573  1.940  2.633  0.000  0.000  454.00  319.33  171.77  147.57    0.00    0.00   0.811   0.624   0.533   0.376   0.289   0.194
 2014 274   100  15.70  33.70  23.20  4.143  1.751  2.376  4.127  1.751  2.376  0.000  0.000  458.14  323.46  173.52  149.94    0.00    0.00   0.775   0.543   0.462   0.333   0.264   0.175
 2014 275   101  20.30  34.90  24.40  5.456  2.307  3.129  5.436  2.307  3.129  0.000  0.000  463.60  328.90  175.82  153.07    0.00    0.00   1.040   0.713   0.599   0.431   0.346   0.231
 2014 276   102  20.00  35.00  25.70  5.409  2.288  3.102  5.390  2.288  3.102  0.000  0.000  469.01  334.29  178.11  156.17    0.00    0.00   1.011   0.714   0.602   0.429   0.346   0.229
 2014 277   103  20.80  33.10  24.60  5.427  2.295  3.112  5.407  2.295  3.112  0.000  0.000  474.44  339.69  180.41  159.29    0.00    0.00   0.973   0.729   0.619   0.439   0.353   0.229
 2014 278   104  17.30  33.50  25.70  4.527  1.914  2.596  4.510  1.914  2.596  0.000  0.000  478.96  344.20  182.32  161.88    0.00    0.00   0.861   0.598   0.501   0.355   0.281   0.191
 2014 279   105  21.90  35.50  26.50  6.135  2.596  3.518  6.114  2.596  3.518  0.000  0.000  485.10  350.32  184.92  165.40    0.00    0.00   1.245   0.800   0.655   0.458   0.360   0.260
 2014 280   106  17.60  35.80  27.50  5.031  2.129  2.885  5.014  2.129  2.885  0.000  0.000  490.13  355.33  187.05  168.28    0.00    0.00   0.940   0.676   0.566   0.395   0.308   0.213
 2014 281   107  25.10  35.00  24.90  6.655  2.815  3.816  4.183  2.815  1.369  0.000  0.000  496.78  359.51  189.86  169.65    0.00    0.00   1.154   0.146   0.044   0.016   0.008   0.281
 2014 282   108  25.40  36.10  25.80  7.128  3.016  4.088  4.253  3.016  1.237  0.000  0.000  503.91  363.77  192.88  170.89    0.00    0.00   1.028   0.142   0.043   0.016   0.008   0.302
 2014 283   109  23.10  35.60  25.70  6.256  2.647  3.587  3.762  2.647  1.115  0.000  0.000  510.17  367.53  195.52  172.01    0.00    0.00   0.912   0.138   0.042   0.016   0.008   0.265
 2014 284   110  15.90  32.90  26.90  4.083  1.727  2.341  2.734  1.727  1.008  0.000  0.000  514.25  370.26  197.25  173.01    0.00    0.00   0.809   0.134   0.041   0.015   0.008   0.173
 2014 285   111  12.70  31.80  26.00  3.186  1.347  1.827  2.264  1.347  0.917  0.000  0.000  517.44  372.53  198.60  173.93    0.00    0.00   0.723   0.132   0.040   0.015   0.008   0.135
 2014 286   112  20.50  37.10  23.90  5.826  2.464  3.341  3.427  2.464  0.963  0.000  0.000  523.26  375.95  201.06  174.89    0.00    0.00   0.771   0.129   0.040   0.015   0.008   0.246
 2014 287   113  23.50  35.70  23.90  6.276  2.654  3.599  3.648  2.654  0.994  0.000  0.000  529.54  379.60  203.72  175.89    0.00    0.00   0.807   0.126   0.039   0.015   0.007   0.265
 2014 288   114  24.90  36.40  26.30  6.966  2.947  3.995  3.843  2.947  0.896  0.000  0.000  536.51  383.45  206.66  176.78    0.00    0.00   0.714   0.122   0.038   0.015   0.007   0.295
 2014 289   115  23.50  35.60  27.50  6.310  2.670  3.619  3.473  2.670  0.804  0.000  0.000  542.82  386.92  209.33  177.59    0.00    0.00   0.627   0.118   0.036   0.014   0.007   0.267
 2014 290   116  24.00  35.60  25.70  6.334  2.679  3.632  3.401  2.679  0.722  0.000  0.000  549.15  390.32  212.01  178.31    0.00    0.00   0.551   0.115   0.035   0.014   0.007   0.268
 2014 291   117  21.60  36.70  22.80  5.898  2.494  3.382  3.142  2.494  0.647  0.000  0.000  555.05  393.46  214.51  178.96    0.00    0.00   0.481   0.111   0.034   0.014   0.007   0.249
 2014 292   118  19.80  35.40  24.20  5.069  2.143  2.907  2.724  2.143  0.581  0.000  0.000  560.12  396.19  216.65  179.54    0.00    0.00   0.419   0.108   0.033   0.014   0.007   0.214
 2014 293   119  22.40  36.70  23.40  6.094  2.577  3.495  3.111  2.577  0.533  0.000  0.000  566.21  399.30  219.23  180.07    0.00    0.00   0.376   0.105   0.033   0.013   0.007   0.258
 2014 294   120  23.70  38.10  23.40  6.905  2.921  3.960  3.413  2.921  0.492  0.000  0.000  573.12  402.71  222.15  180.56    0.00    0.00   0.339   0.101   0.032   0.013   0.007   0.292
 2014 295   121  23.50  39.70  21.70  7.299  3.088  4.186  3.541  3.088  0.454  0.000  0.000  580.41  406.25  225.24  181.01    0.00    0.00   0.307   0.097   0.030   0.013   0.006   0.309
 2014 296   122  22.70  39.20  24.90  7.014  2.969  4.022  3.388  2.969  0.419  0.000  0.000  587.43  409.64  228.20  181.43    0.00    0.00   0.278   0.093   0.029   0.012   0.006   0.297
 2014 297   123  22.30  40.70  24.30  7.348  3.111  4.214  3.507  3.111  0.396  0.000  0.000  594.78  413.14  231.31  181.83    0.00    0.00   0.261   0.089   0.028   0.012   0.006   0.311
 2014 298   124  21.50  40.50  23.30  6.972  2.951  3.998  3.325  2.950  0.375  0.000  0.000  601.75  416.47  234.26  182.21    0.00    0.00   0.246   0.085   0.027   0.012   0.006   0.295
 2014 299   125  20.00  38.60  25.20  5.991  2.536  3.435  2.883  2.536  0.347  0.000  0.000  607.74  419.35  236.80  182.55    0.00    0.00   0.224   0.081   0.025   0.012   0.006   0.254
 2014 300   126  21.60  38.70  24.30  6.454  2.732  3.701  3.054  2.732  0.322  0.000  0.000  614.19  422.41  239.53  182.87    0.00    0.00   0.203   0.077   0.024   0.011   0.006   0.273
 2014 301   127  22.20  39.60  23.20  6.867  2.907  3.938  3.205  2.907  0.298  0.000  0.000  621.06  425.61  242.44  183.17    0.00    0.00   0.184   0.074   0.023   0.011   0.005   0.291
 2014 302   128  22.30  40.10  24.90  7.130  3.019  4.089  3.294  3.019  0.275  0.000  0.000  628.19  428.91  245.46  183.45    0.00    0.00   0.167   0.070   0.022   0.011   0.005   0.302
 2014 303   129  22.20  40.80  22.50  7.210  3.053  4.135  3.307  3.053  0.254  0.000  0.000  635.40  432.21  248.51  183.70    0.00    0.00   0.152   0.066   0.021   0.010   0.005   0.305
 2014 304   130  22.30  38.80  25.40  6.710  2.841  3.848  3.076  2.841  0.235  0.000  0.000  642.11  435.29  251.35  183.94    0.00    0.00   0.138   0.062   0.020   0.010   0.005   0.284
 2014 305   131  22.70  39.50  25.70  7.070  2.994  4.054  3.211  2.994  0.217  0.000  0.000  649.18  438.50  254.35  184.15    0.00    0.00   0.125   0.058   0.019   0.010   0.005   0.299
 2014 306   132  21.00  40.60  23.80  6.795  2.877  3.897  3.078  2.877  0.201  0.000  0.000  655.98  441.58  257.22  184.35    0.00    0.00   0.114   0.055   0.017   0.010   0.005   0.288
 2014 307   133  19.30  40.40  25.30  6.242  2.643  3.580  2.830  2.643  0.186  0.000  0.000  662.22  444.41  259.87  184.54    0.00    0.00   0.103   0.053   0.016   0.009   0.004   0.264
 2014 308   134  21.10  40.70  25.30  6.914  2.928  3.965  3.115  2.928  0.188  0.000  0.000  669.13  447.52  262.79  184.73    0.00    0.00   0.108   0.052   0.016   0.009   0.004   0.293
 2014 309   135  12.20  33.30  26.00  2.971  1.257  1.704  1.446  1.257  0.189  0.000  0.000  672.10  448.97  264.05  184.92    0.00    0.00   0.111   0.050   0.015   0.008   0.004   0.126
 2014 310   136  15.30  35.90  22.30  3.881  1.641  2.225  2.054  1.641  0.412  0.000  0.000  675.98  451.02  265.69  185.33    0.00    0.00   0.336   0.049   0.015   0.008   0.004   0.164
 2014 311   137  19.10  38.70  21.50  5.744  2.430  3.294  3.045  2.430  0.615  0.000  0.000  681.73  454.07  268.12  185.94    0.00    0.00   0.540   0.049   0.015   0.008   0.004   0.243
 2014 312   138  21.10  39.40  20.80  6.496  2.747  3.725  3.281  2.747  0.534  0.000  0.000  688.22  457.35  270.87  186.48    0.00    0.00   0.460   0.048   0.015   0.007   0.004   0.275
 2014 313   139  19.90  39.60  22.60  6.227  2.634  3.571  3.099  2.634  0.464  0.000  0.000  694.45  460.45  273.50  186.94    0.00    0.00   0.393   0.047   0.014   0.007   0.003   0.263
 2014 314   140  20.80  37.30  24.10  5.852  2.475  3.356  2.895  2.475  0.419  0.000  0.000  700.30  463.34  275.98  187.36    0.00    0.00   0.350   0.046   0.014   0.006   0.003   0.248
 2014 315   141  20.20  38.20  24.50  5.946  2.515  3.410  2.868  2.487  0.381  0.000  0.000  706.25  466.21  278.47  187.74    0.00    0.00   0.313   0.045   0.014   0.006   0.003   0.249
 2014 316   142  20.10  37.50  22.80  5.636  2.383  3.232  1.822  1.476  0.346  0.000  0.000  711.89  468.03  279.94  188.09    0.00    0.00   0.281   0.043   0.013   0.005   0.003   0.148
 2014 317   143  18.00  38.80  23.20  5.386  2.278  3.089  1.404  1.087  0.316  0.000  0.000  717.27  469.43  281.03  188.40    0.00    0.00   0.254   0.042   0.013   0.005   0.003   0.109
 2014 318   144  20.00  38.60  22.70  5.897  2.494  3.382  1.167  0.875  0.291  0.000  0.000  723.17  470.60  281.91  188.70    0.00    0.00   0.230   0.041   0.013   0.005   0.003   0.088
 2014 319   145  20.20  39.10  22.30  6.077  2.569  3.485  1.004  0.735  0.269  0.000  0.000  729.25  471.60  282.64  188.96    0.00    0.00   0.209   0.040   0.012   0.005   0.002   0.073
 2014 320   146  20.00  39.00  21.40  5.944  2.513  3.409  0.882  0.634  0.248  0.000  0.000  735.19  472.49  283.27  189.21    0.00    0.00   0.190   0.039   0.012   0.005   0.002   0.063
 2014 321   147  20.50  39.00  21.30  6.081  2.570  3.487  0.788  0.558  0.230  0.000  0.000  741.27  473.27  283.83  189.44    0.00    0.00   0.172   0.039   0.012   0.005   0.002   0.056
 2014 322   148  20.20  38.10  22.40  5.768  2.438  3.308  0.711  0.498  0.213  0.000  0.000  747.04  473.99  284.33  189.66    0.00    0.00   0.156   0.038   0.012   0.005   0.002   0.050
 2014 323   149  19.10  38.00  22.70  5.432  2.296  3.115  0.647  0.450  0.198  0.000  0.000  752.47  474.63  284.78  189.85    0.00    0.00   0.142   0.037   0.011   0.005   0.002   0.045
 2014 324   150  18.50  38.60  22.30  5.400  2.282  3.097  0.594  0.410  0.184  0.000  0.000  757.87  475.23  285.19  190.04    0.00    0.00   0.129   0.037   0.011   0.004   0.002   0.041
 2014 325   151  19.80  37.80  19.20  5.436  2.296  3.117  0.548  0.376  0.171  0.000  0.000  763.31  475.77  285.57  190.21    0.00    0.00   0.117   0.036   0.011   0.004   0.002   0.038
 2014 326   152  19.90  38.70  17.90  5.659  2.390  3.245  0.508  0.348  0.160  0.000  0.000  768.97  476.28  285.91  190.37    0.00    0.00   0.106   0.036   0.011   0.004   0.002   0.035
 2014 327   153  20.10  38.00  18.60  5.543  2.341  3.179  0.473  0.323  0.149  0.000  0.000  774.51  476.75  286.24  190.52    0.00    0.00   0.096   0.035   0.011   0.004   0.002   0.032
 2014 328   154  18.40  37.60  20.50  5.034  2.126  2.887  0.442  0.302  0.140  0.000  0.000  779.54  477.20  286.54  190.66    0.00    0.00   0.088   0.035   0.011   0.004   0.002   0.030
 2014 329   155  18.10  38.50  21.60  5.214  2.203  2.990  0.414  0.283  0.131  0.000  0.000  784.76  477.61  286.82  190.79    0.00    0.00   0.080   0.034   0.011   0.004   0.002   0.028
 2014 330   156  18.50  36.90  19.60  4.847  2.047  2.780  0.390  0.266  0.123  0.000  0.000  789.60  478.00  287.09  190.91    0.00    0.00   0.072   0.034   0.011   0.004   0.002   0.027
