*INFO DETAIL FILE

******************************************************************************

*DSSAT Cropping System Model Ver. 4.7.2.000 -release      OCT 15, 2021; 17:59:33
                                                                                
*RUN   1        :             CSM335_date_1 MZCER047 ITSA1301    1              
 MODEL          : MZCER047 - Maize                                              
 EXPERIMENT     : ITSA1301 SG CALIBRATION SETUP OF SORGHUM SOWING DATES         
 DATA PATH      :                                                               
 TREATMENT  1   :             CSM335_date_1 MZCER047                            
  

 CSM     YEAR DOY = 2014 175
 RNMODE = B                                                                    
 PATHEX =                                                                      
 FILEX  = ITSA1301.SGX                                                         
 FILEB  = DSSBatch.v47                                                         
 FILEIO = DSSAT47.INP                                                          
 MODEL  = MZCER047                                                             
 TRTNUM =     1                                                                

 SOILDYN  YEAR DOY = 2014 175
 The soil file has missing or invalid data.                                    
 Default values have been used for these variables:                            
   ADCOEF                                                                      
 These defaults may or may not be important to your results.                   

 RETC  YEAR DOY = 2014 175
 Soil RETC parameters:                                                         
  LYR DS  SWCN   WCR    Hb Lambd  Alpha     m     n Texture                    
   1   5  2.59 0.048   2.8 0.424  0.021 0.314 1.458 LoamySand                  
   2  15  2.59 0.048   2.8 0.424  0.021 0.314 1.458 LoamySand                  
   3  30  2.59 0.048   2.8 0.424  0.021 0.314 1.458 LoamySand                  
   4  45  2.59 0.048   2.8 0.424  0.021 0.314 1.458 LoamySand                  
   5  60  2.59 0.048   2.8 0.424  0.021 0.314 1.458 LoamySand                  

 SOILDYN  YEAR DOY = 2014 175
 Soil ID: XXBEOU0101                                                           
                                                                               
  CLASSIFICATION FRANCAISE                                                     
   SALB SWCON    CN  DMOD  SLPF SMPX                                           
   0.30  0.60  30.0  1.00  1.00 IB001                                          
 Soil layer distribution method: 2                                             
      DS DLAYR    LL   DUL   SAT  Root    BD    OC  CLAY  SILT  SAND           
 LYR  cm    cm  frac  frac  frac  Grow g/cm3     %     %     %     %    pH     
   1   5     5 0.076 0.280 0.445 1.000  1.40  0.90   7.0  15.0  78.0   5.0     
   2  15    10 0.076 0.280 0.445 1.000  1.40  0.90   7.0  15.0  78.0   5.0     
   3  30    15 0.076 0.280 0.445 1.000  1.40  0.90   7.0  15.0  78.0   5.0     
   4  45    15 0.076 0.280 0.445 1.000  1.40  0.40   7.0  15.0  78.0   5.0     
   5  60    15 0.076 0.280 0.445 1.000  1.40  0.40   7.0  15.0  78.0   5.0     

 SOILDYN  YEAR DOY = 2014 175
 Additional soil properties                                                    
                Convert                                                        
    Cation Adsrp  ppm /  KSAT  SLCF  TOTN  OrgN                                
   L  Exch  Coef  kg/ha  cm/h     %     % kg/ha                                
   1   5.0   0.0   1.43   2.6   0.0  0.02   130                                
   2   5.0   0.0   0.71   2.6   0.0  0.02   260                                
   3   5.0   0.0   0.48   2.6   0.0  0.02   390                                
   4   5.0   0.0   0.48   2.6   0.0  0.00   -99                                
   5   5.0   0.0   0.48   2.6   0.0  0.00   -99                                

 IPWTH   YEAR DOY = 2014 175
 BEOU1401.WTH                                                                  
 Found daily weather data headers for:                                         
   SRAD           Col   7 -  11                                                
   TMAX           Col  13 -  17                                                
   TMIN           Col  19 -  24                                                
   RAIN           Col  26 -  30                                                
   DEWP           Col  32 -  36                                                
   WIND           Col  38 -  42                                                
   PAR            Col  44 -  48                                                
   RHUM           Col  56 -  60                                                

 CO2VAL  YEAR DOY = 2014 175
  721 CO2 data points read from file.                                          
 C:\DSSAT47\StandardData\CO2047.WDA                                            

 SOMINI  YEAR DOY = 2014 175
 Field history for initial soil organic matter composition.                    
 File: C:\DSSAT47\StandardData\SOMFR047.SDA                                    
 Field history code: FH201 Cultivated with good management practices, initial  
 Duration:   0 years                                                           

 SOMINI  YEAR DOY = 2014 175
 Initial SOM fractions (fraction of total soil organic matter):                
                      SAND   TOC  FOMC  SOMC  SOM1  SOM2  SOM3                 
  Lyr Dep Texture       %     %     %     %   frac  frac  frac Method          
   1   5 LoamySand    78.0 0.900 0.007 0.893 0.033 0.627 0.340 Field history   
   2  15 LoamySand    78.0 0.900 0.005 0.895 0.033 0.627 0.340 Field history   
   3  30 LoamySand    78.0 0.900 0.002 0.898 0.033 0.627 0.340 Field history   
   4  45 LoamySand    78.0 0.399 0.001 0.398 0.001 0.019 0.980 Regression eqn  
   5  60 LoamySand    78.0 0.399 0.001 0.398 0.001 0.019 0.980 Regression eqn  

 ENDRUN  YEAR DOY = 2014 330
 Normal end of run        1                                                    
