*PLANT N OUTPUT FILE

*DSSAT Cropping System Model Ver. 4.7.2.000 -release      OCT 15, 2021; 17:59:33
                                                                                
*RUN   1        :             CSM335_date_1 MZCER047 ITSA1301    1              
 MODEL          : MZCER047 - Maize                                              
 EXPERIMENT     : ITSA1301 SG CALIBRATION SETUP OF SORGHUM SOWING DATES         
 DATA PATH      :                                                               
 TREATMENT  1   :             CSM335_date_1 MZCER047                            
  
@YEAR DOY   DAS   DAP   CNAD   GNAD   VNAD   GN%D   VN%D   NUPC   LNAD   SNAD   LN%D   SN%D   RN%D   SNN0C   SNN1C
 2014 185    11     0    0.0    0.0    0.0   0.00   0.00    0.0    0.0    0.0    0.0   0.00   0.00    0.00    0.00
 2014 186    12     1    0.0    0.0    0.0   0.00   0.00    0.0    0.0    0.0    0.0   0.00   0.00    0.00    0.00
 2014 187    13     2    0.0    0.0    0.0   0.00   0.00    0.0    0.0    0.0    0.0   0.00   0.00    0.00    0.00
 2014 188    14     3    0.0    0.0    0.0   0.00   0.00    0.0    0.0    0.0    0.0   0.00   0.00    0.00    0.00
 2014 189    15     4    0.0    0.0    0.0   0.00   0.00    0.0    0.0    0.0    0.0   0.00   0.00    0.00    0.00
 2014 190    16     5    1.1    0.0    1.1   0.00   4.40    0.0    0.5    0.5    4.4   4.40   2.21    0.00    0.00
 2014 191    17     6    1.1    0.0    1.1   0.00   4.40    0.0    0.5    0.5    4.4   4.40   2.16    0.00    0.00
 2014 192    18     7    1.1    0.0    1.1   0.00   4.40    0.0    0.5    0.5    4.4   4.40   2.08    0.00    0.00
 2014 193    19     8    1.1    0.0    1.1   0.00   4.40    0.0    0.5    0.5    4.4   4.40   1.96    0.00    0.00
 2014 194    20     9    1.1    0.0    1.1   0.00   3.66    0.0    0.6    0.5    3.7   3.66   1.90    0.00    0.00
 2014 195    21    10    1.3    0.0    1.3   0.00   3.07    0.1    0.9    0.4    3.1   3.07   1.12    0.00    0.00
 2014 196    22    11    1.7    0.0    1.7   0.00   3.36    0.5    1.3    0.4    3.4   3.36   1.17    0.00    0.00
 2014 197    23    12    2.0    0.0    2.0   0.00   3.46    0.9    1.6    0.4    3.5   3.46   1.15    0.00    0.00
 2014 198    24    13    2.4    0.0    2.4   0.00   3.49    1.2    1.9    0.4    3.5   3.49   1.15    0.00    0.00
 2014 199    25    14    2.7    0.0    2.7   0.00   3.53    1.6    2.2    0.4    3.5   3.53   1.14    0.00    0.01
 2014 200    26    15    3.0    0.0    3.0   0.00   3.23    1.9    2.6    0.4    3.2   3.23   1.19    0.00    0.01
 2014 201    27    16    3.5    0.0    3.5   0.00   3.23    2.5    3.1    0.4    3.2   3.23   1.19    0.00    0.01
 2014 202    28    17    4.3    0.0    4.3   0.00   3.32    3.3    3.9    0.4    3.3   3.32   1.19    0.00    0.01
 2014 203    29    18    4.9    0.0    4.9   0.00   3.58    3.9    4.5    0.4    3.6   3.58   1.12    0.00    0.01
 2014 204    30    19    6.0    0.0    6.0   0.00   3.79    5.0    5.5    0.5    3.8   3.79   1.17    0.00    0.01
 2014 205    31    20    6.7    0.0    6.7   0.00   3.73    5.9    6.3    0.5    3.7   3.73   1.18    0.00    0.02
 2014 206    32    21    7.5    0.0    7.5   0.00   3.62    6.6    7.1    0.5    3.6   3.62   1.10    0.00    0.02
 2014 207    33    22    8.5    0.0    8.5   0.00   3.54    7.6    8.1    0.5    3.5   3.54   1.11    0.00    0.02
 2014 208    34    23   10.2    0.0   10.2   0.00   3.48    9.3    9.7    0.5    3.5   3.48   1.13    0.00    0.02
 2014 209    35    24   11.4    0.0   11.4   0.00   3.42   10.6   10.9    0.6    3.4   3.42   1.12    0.00    0.02
 2014 210    36    25   12.5    0.0   12.5   0.00   3.37   11.7   11.8    0.7    3.4   3.37   1.11    0.00    0.03
 2014 211    37    26   14.6    0.0   14.6   0.00   3.31   13.8   13.6    1.0    3.3   3.31   1.14    0.00    0.03
 2014 212    38    27   16.2    0.0   16.2   0.00   3.25   15.5   14.9    1.2    3.3   3.25   1.13    0.00    0.03
 2014 213    39    28   17.9    0.0   17.9   0.00   3.20   17.2   16.2    1.6    3.2   3.20   1.13    0.00    0.04
 2014 214    40    29   18.5    0.0   18.5   0.00   3.15   17.9   16.7    1.8    3.2   3.15   1.09    0.00    0.04
 2014 215    41    30   19.9    0.0   19.9   0.00   3.10   19.3   17.7    2.2    3.1   3.10   1.12    0.00    0.04
 2014 216    42    31   21.9    0.0   21.9   0.00   3.06   21.3   19.0    2.9    3.1   3.06   1.13    0.00    0.05
 2014 217    43    32   23.9    0.0   23.9   0.00   3.01   23.4   20.2    3.7    3.0   3.01   1.13    0.00    0.05
 2014 218    44    33   25.7    0.0   25.7   0.00   2.96   25.3   21.2    4.5    3.0   2.96   1.12    0.00    0.05
 2014 219    45    34   28.0    0.0   28.0   0.00   2.92   27.6   22.5    5.6    2.9   2.92   1.13    0.00    0.06
 2014 220    46    35   29.4    0.0   29.4   0.00   2.87   29.0   23.1    6.3    2.9   2.87   1.11    0.00    0.06
 2014 221    47    36   30.5    0.0   30.5   0.00   2.83   30.1   23.6    6.9    2.8   2.83   1.10    0.00    0.07
 2014 222    48    37   33.0    0.0   33.0   0.00   2.79   32.7   24.6    8.3    2.8   2.79   1.13    0.00    0.07
 2014 223    49    38   35.3    0.0   35.3   0.00   2.75   35.1   25.6    9.7    2.7   2.75   1.13    0.00    0.08
 2014 224    50    39   36.5    0.0   36.5   0.00   2.70   36.3   25.9   10.5    2.7   2.70   1.10    0.00    0.08
 2014 225    51    40   38.5    0.0   38.5   0.00   2.67   38.4   26.5   12.0    2.7   2.67   1.12    0.00    0.09
 2014 226    52    41   40.2    0.0   40.2   0.00   2.63   40.1   26.9   13.4    2.6   2.63   1.11    0.00    0.09
 2014 227    53    42   41.5    0.0   41.5   0.00   2.59   41.5   27.0   14.5    2.6   2.59   1.10    0.00    0.10
 2014 228    54    43   42.1    0.0   42.1   0.00   2.55   42.1   27.0   15.2    2.6   2.55   1.09    0.00    0.11
 2014 229    55    44   44.5    0.0   44.5   0.00   2.52   44.6   27.4   17.1    2.5   2.52   1.12    0.00    0.11
 2014 230    56    45   45.5    0.0   45.5   0.00   2.48   45.6   27.4   18.2    2.5   2.48   1.10    0.00    0.12
 2014 231    57    46   47.2    0.0   47.2   0.00   2.45   47.4   27.5   19.7    2.4   2.45   1.11    0.00    0.12
 2014 232    58    47   49.9    0.0   49.9   0.00   2.42   50.2   28.0   21.8    2.4   2.42   1.13    0.00    0.13
 2014 233    59    48   51.6    0.0   51.6   0.00   2.38   52.0   28.2   23.5    2.4   2.38   1.12    0.00    0.14
 2014 234    60    49   52.3    0.0   52.3   0.00   2.34   52.7   28.1   24.3    2.3   2.34   1.10    0.00    0.15
 2014 235    61    50   53.8    0.0   53.8   0.00   2.32   54.3   28.3   25.5    2.3   2.32   1.11    0.00    0.16
 2014 236    62    51   55.4    0.0   55.4   0.00   2.29   56.0   28.6   26.9    2.3   2.29   1.11    0.00    0.16
 2014 237    63    52   57.4    0.0   57.4   0.00   2.27   58.1   29.1   28.4    2.3   2.27   1.12    0.00    0.17
 2014 238    64    53   57.4    0.0   57.4   0.00   2.26   58.1   28.7   28.8    2.3   2.26   1.11    0.00    0.17
 2014 239    65    54   57.4    0.0   57.4   0.00   2.25   58.1   28.0   29.4    2.2   2.25   1.08    0.00    0.17
 2014 240    66    55   57.4    0.0   57.4   0.00   2.23   58.1   27.4   30.0    2.2   2.23   1.04    0.00    0.17
 2014 241    67    56   57.4    0.0   57.4   0.00   2.22   58.1   26.8   30.6    2.2   2.22   1.01    0.00    0.17
 2014 242    68    57   57.4    0.0   57.4   0.00   2.22   58.1   26.3   31.1    2.2   2.22   0.98    0.00    0.17
 2014 243    69    58   57.4    0.0   57.4   0.00   2.23   58.1   25.9   31.6    2.2   2.23   0.96    0.00    0.17
 2014 244    70    59   57.4    0.0   57.4   0.00   2.24   58.1   25.4   32.0    2.2   2.24   0.94    0.00    0.17
 2014 245    71    60   57.4    0.0   57.4   0.00   2.26   58.1   24.9   32.5    2.3   2.26   0.93    0.00    0.17
 2014 246    72    61   57.4    1.0   56.5   1.82   2.22   58.1   24.5   31.9    2.2   2.22   0.90    0.00    0.17
 2014 247    73    62   57.4    2.3   55.1   1.80   2.17   58.1   23.9   31.2    2.2   2.17   0.82    0.00    0.17
 2014 248    74    63   57.4    3.9   53.6   1.78   2.14   58.1   23.6   29.9    2.1   2.14   0.82    0.00    0.17
 2014 249    75    64   57.4    5.1   52.3   1.78   2.07   58.1   22.8   29.5    2.1   2.07   0.78    0.00    0.17
 2014 250    76    65   57.4    6.6   50.8   1.78   2.00   58.1   22.1   28.7    2.0   2.00   0.76    0.00    0.17
 2014 251    77    66   57.4    8.1   49.4   1.78   1.94   58.1   21.4   27.9    1.9   1.94   0.72    0.00    0.17
 2014 252    78    67   57.4    9.5   48.0   1.78   1.89   58.1   20.8   27.1    1.9   1.89   0.69    0.00    0.17
 2014 253    79    68   57.4   11.1   46.4   1.77   1.85   58.1   20.4   26.0    1.8   1.85   0.70    0.00    0.17
 2014 254    80    69   57.4   12.4   45.0   1.77   1.78   58.1   19.6   25.4    1.8   1.78   0.66    0.00    0.17
 2014 255    81    70   57.4   13.8   43.6   1.77   1.72   58.1   19.0   24.6    1.7   1.72   0.67    0.00    0.17
 2014 256    82    71   57.4   15.1   42.3   1.77   1.66   58.1   18.4   23.9    1.7   1.66   0.63    0.00    0.17
 2014 257    83    72   57.4   16.4   41.0   1.77   1.62   58.1   17.9   23.1    1.6   1.62   0.63    0.00    0.17
 2014 258    84    73   57.4   17.7   39.8   1.77   1.56   58.1   17.3   22.5    1.6   1.56   0.61    0.00    0.17
 2014 259    85    74   57.4   19.2   38.2   1.77   1.52   58.1   16.8   21.4    1.5   1.52   0.61    0.00    0.17
 2014 260    86    75   57.4   20.8   36.6   1.77   1.48   58.1   16.3   20.3    1.5   1.48   0.61    0.00    0.17
 2014 261    87    76   57.4   22.5   35.0   1.77   1.43   58.1   15.8   19.2    1.4   1.43   0.62    0.00    0.17
 2014 262    88    77   57.4   22.5   35.0   1.77   1.43   58.1   15.8   19.2    1.4   1.43   0.62    0.00    0.17
 2014 263    89    78   57.4   22.5   35.0   1.77   1.43   58.1   15.8   19.2    1.4   1.43   0.62    0.00    0.17
 2014 264    90    79   57.4   22.5   35.0   1.77   1.43   58.1   15.8   19.2    1.4   1.43   0.62    0.00    0.17
 2014 265    91    80   57.4   22.5   35.0   1.77   1.43   58.1   15.8   19.2    1.4   1.43   0.62    0.00    0.17
 2014 266    92    81   57.4   22.5   35.0   1.77   1.43   58.1   15.8   19.2    1.4   1.43   0.62    0.00    0.17
 2014 267    93    82   57.4   22.5   35.0   1.77   1.43   58.1   15.8   19.2    1.4   1.43   0.62    0.00    0.17
 2014 268    94    83   57.4   22.5   35.0   1.77   1.43   58.1   15.8   19.2    1.4   1.43   0.62    0.00    0.17
 2014 269    95    84   57.4   22.5   35.0   1.77   1.43   58.1   15.8   19.2    1.4   1.43   0.62    0.00    0.17
 2014 270    96    85   57.4   22.5   35.0   1.77   1.43   58.1   15.8   19.2    1.4   1.43   0.62    0.00    0.17
 2014 271    97    86   57.4   22.5   35.0   1.77   1.43   58.1   15.8   19.2    1.4   1.43   0.62    0.00    0.17
 2014 272    98    87   57.4   22.5   35.0   1.77   1.43   58.1   15.8   19.2    1.4   1.43   0.62    0.00    0.17
 2014 273    99    88   57.4   22.5   35.0   1.77   1.43   58.1   15.8   19.2    1.4   1.43   0.62    0.00    0.17
 2014 274   100    89   57.4   22.5   35.0   1.77   1.43   58.1   15.8   19.2    1.4   1.43   0.62    0.00    0.17
 2014 275   101    90   57.4   22.5   35.0   1.77   1.43   58.1   15.8   19.2    1.4   1.43   0.62    0.00    0.17
 2014 276   102    91   57.4   22.5   35.0   1.77   1.43   58.1   15.8   19.2    1.4   1.43   0.62    0.00    0.17
 2014 277   103    92   57.4   22.5   35.0   1.77   1.43   58.1   15.8   19.2    1.4   1.43   0.62    0.00    0.17
 2014 278   104    93   57.4   22.5   35.0   1.77   1.43   58.1   15.8   19.2    1.4   1.43   0.62    0.00    0.17
 2014 279   105    94   57.4   22.5   35.0   1.77   1.43   58.1   15.8   19.2    1.4   1.43   0.62    0.00    0.17
 2014 280   106    95   57.4   22.5   35.0   1.77   1.43   58.1   15.8   19.2    1.4   1.43   0.62    0.00    0.17
 2014 281   107    96   57.4   22.5   35.0   1.77   1.43   58.1   15.8   19.2    1.4   1.43   0.62    0.00    0.17
 2014 282   108    97   57.4   22.5   35.0   1.77   1.43   58.1   15.8   19.2    1.4   1.43   0.62    0.00    0.17
 2014 283   109    98   57.4   22.5   35.0   1.77   1.43   58.1   15.8   19.2    1.4   1.43   0.62    0.00    0.17
 2014 284   110    99   57.4   22.5   35.0   1.77   1.43   58.1   15.8   19.2    1.4   1.43   0.62    0.00    0.17
 2014 285   111   100   57.4   22.5   35.0   1.77   1.43   58.1   15.8   19.2    1.4   1.43   0.62    0.00    0.17
 2014 286   112   101   57.4   22.5   35.0   1.77   1.43   58.1   15.8   19.2    1.4   1.43   0.62    0.00    0.17
 2014 287   113   102   57.4   22.5   35.0   1.77   1.43   58.1   15.8   19.2    1.4   1.43   0.62    0.00    0.17
 2014 288   114   103   57.4   22.5   35.0   1.77   1.43   58.1   15.8   19.2    1.4   1.43   0.62    0.00    0.17
 2014 289   115   104   57.4   22.5   35.0   1.77   1.43   58.1   15.8   19.2    1.4   1.43   0.62    0.00    0.17
 2014 290   116   105   57.4   22.5   35.0   1.77   1.43   58.1   15.8   19.2    1.4   1.43   0.62    0.00    0.17
 2014 291   117   106   57.4   22.5   35.0   1.77   1.43   58.1   15.8   19.2    1.4   1.43   0.62    0.00    0.17
 2014 292   118   107   57.4   22.5   35.0   1.77   1.43   58.1   15.8   19.2    1.4   1.43   0.62    0.00    0.17
 2014 293   119   108   57.4   22.5   35.0   1.77   1.43   58.1   15.8   19.2    1.4   1.43   0.62    0.00    0.17
 2014 294   120   109   57.4   22.5   35.0   1.77   1.43   58.1   15.8   19.2    1.4   1.43   0.62    0.00    0.17
 2014 295   121   110   57.4   22.5   35.0   1.77   1.43   58.1   15.8   19.2    1.4   1.43   0.62    0.00    0.17
 2014 296   122   111   57.4   22.5   35.0   1.77   1.43   58.1   15.8   19.2    1.4   1.43   0.62    0.00    0.17
 2014 297   123   112   57.4   22.5   35.0   1.77   1.43   58.1   15.8   19.2    1.4   1.43   0.62    0.00    0.17
 2014 298   124   113   57.4   22.5   35.0   1.77   1.43   58.1   15.8   19.2    1.4   1.43   0.62    0.00    0.17
 2014 299   125   114   57.4   22.5   35.0   1.77   1.43   58.1   15.8   19.2    1.4   1.43   0.62    0.00    0.17
 2014 300   126   115   57.4   22.5   35.0   1.77   1.43   58.1   15.8   19.2    1.4   1.43   0.62    0.00    0.17
 2014 301   127   116   57.4   22.5   35.0   1.77   1.43   58.1   15.8   19.2    1.4   1.43   0.62    0.00    0.17
 2014 302   128   117   57.4   22.5   35.0   1.77   1.43   58.1   15.8   19.2    1.4   1.43   0.62    0.00    0.17
 2014 303   129   118   57.4   22.5   35.0   1.77   1.43   58.1   15.8   19.2    1.4   1.43   0.62    0.00    0.17
 2014 304   130   119   57.4   22.5   35.0   1.77   1.43   58.1   15.8   19.2    1.4   1.43   0.62    0.00    0.17
 2014 305   131   120   57.4   22.5   35.0   1.77   1.43   58.1   15.8   19.2    1.4   1.43   0.62    0.00    0.17
 2014 306   132   121   57.4   22.5   35.0   1.77   1.43   58.1   15.8   19.2    1.4   1.43   0.62    0.00    0.17
 2014 307   133   122   57.4   22.5   35.0   1.77   1.43   58.1   15.8   19.2    1.4   1.43   0.62    0.00    0.17
 2014 308   134   123   57.4   22.5   35.0   1.77   1.43   58.1   15.8   19.2    1.4   1.43   0.62    0.00    0.17
 2014 309   135   124   57.4   22.5   35.0   1.77   1.43   58.1   15.8   19.2    1.4   1.43   0.62    0.00    0.17
 2014 310   136   125   57.4   22.5   35.0   1.77   1.43   58.1   15.8   19.2    1.4   1.43   0.62    0.00    0.17
 2014 311   137   126   57.4   22.5   35.0   1.77   1.43   58.1   15.8   19.2    1.4   1.43   0.62    0.00    0.17
 2014 312   138   127   57.4   22.5   35.0   1.77   1.43   58.1   15.8   19.2    1.4   1.43   0.62    0.00    0.17
 2014 313   139   128   57.4   22.5   35.0   1.77   1.43   58.1   15.8   19.2    1.4   1.43   0.62    0.00    0.17
 2014 314   140   129   57.4   22.5   35.0   1.77   1.43   58.1   15.8   19.2    1.4   1.43   0.62    0.00    0.17
 2014 315   141   130   57.4   22.5   35.0   1.77   1.43   58.1   15.8   19.2    1.4   1.43   0.62    0.00    0.17
 2014 316   142   131   57.4   22.5   35.0   1.77   1.43   58.1   15.8   19.2    1.4   1.43   0.62    0.00    0.17
 2014 317   143   132   57.4   22.5   35.0   1.77   1.43   58.1   15.8   19.2    1.4   1.43   0.62    0.00    0.17
 2014 318   144   133   57.4   22.5   35.0   1.77   1.43   58.1   15.8   19.2    1.4   1.43   0.62    0.00    0.17
 2014 319   145   134   57.4   22.5   35.0   1.77   1.43   58.1   15.8   19.2    1.4   1.43   0.62    0.00    0.17
 2014 320   146   135   57.4   22.5   35.0   1.77   1.43   58.1   15.8   19.2    1.4   1.43   0.62    0.00    0.17
 2014 321   147   136   57.4   22.5   35.0   1.77   1.43   58.1   15.8   19.2    1.4   1.43   0.62    0.00    0.17
 2014 322   148   137   57.4   22.5   35.0   1.77   1.43   58.1   15.8   19.2    1.4   1.43   0.62    0.00    0.17
 2014 323   149   138   57.4   22.5   35.0   1.77   1.43   58.1   15.8   19.2    1.4   1.43   0.62    0.00    0.17
 2014 324   150   139   57.4   22.5   35.0   1.77   1.43   58.1   15.8   19.2    1.4   1.43   0.62    0.00    0.17
 2014 325   151   140   57.4   22.5   35.0   1.77   1.43   58.1   15.8   19.2    1.4   1.43   0.62    0.00    0.17
 2014 326   152   141   57.4   22.5   35.0   1.77   1.43   58.1   15.8   19.2    1.4   1.43   0.62    0.00    0.17
 2014 327   153   142   57.4   22.5   35.0   1.77   1.43   58.1   15.8   19.2    1.4   1.43   0.62    0.00    0.17
 2014 328   154   143   57.4   22.5   35.0   1.77   1.43   58.1   15.8   19.2    1.4   1.43   0.62    0.00    0.17
 2014 329   155   144   57.4   22.5   35.0   1.77   1.43   58.1   15.8   19.2    1.4   1.43   0.62    0.00    0.17
 2014 330   156   145   57.4   22.5   35.0   1.77   1.43   58.1   15.8   19.2    1.4   1.43   0.62    0.00    0.17
