*GROWTH ASPECTS OUTPUT FILE

*DSSAT Cropping System Model Ver. 4.7.2.000 -release      OCT 15, 2021; 17:59:33
                                                                                
*RUN   1        :             CSM335_date_1 MZCER047 ITSA1301    1              
 MODEL          : MZCER047 - Maize                                              
 EXPERIMENT     : ITSA1301 SG CALIBRATION SETUP OF SORGHUM SOWING DATES         
 DATA PATH      :                                                               
 TREATMENT  1   :             CSM335_date_1 MZCER047                            
  
!                                                                                                                                                                                                                                      Root Dens. (cm/cm3) by soil depth (cm):
!                                                                                                                                                                                                                                      0-5    5-15   15-30   30-45   45-60
@YEAR DOY   DAS   DAP   L#SD   GSTD   LAID   LWAD   SWAD   GWAD   RWAD   VWAD   CWAD   G#AD   GWGD   HIAD   PWAD   P#AD   WSPD   WSGD   NSTD   EWSD  PST1A  PST2A   KSTD   LN%D   SH%D   HIPD   PWDD   PWTD     SLAD   CHTD   CWID   RDPD    RL1D    RL2D    RL3D    RL4D    RL5D   CDAD   LDAD   SDAD   SNW0C   SNW1C  DTTD
 2014 185    11     0    0.0      0   0.00      0      0      0      0      0      0      0    0.0  0.000      0      0  0.000  0.000  0.000  0.000  0.000  0.000  0.000   0.00   0.00   0.00      0      0      0.0   0.00   0.00   0.03    0.00    0.00    0.00    0.00    0.00      0      0      0       0       0 20.09
 2014 186    12     1    0.0      0   0.00      0      0      0      0      0      0      0    0.0  0.000      0      0  0.000  0.000  0.000  0.000  0.000  0.000  0.000   0.00   0.00   0.00      0      0      0.0   0.00   0.00   0.06    0.00    0.00    0.00    0.00    0.00      0      0      0       0       0 20.71
 2014 187    13     2    0.0      0   0.00      0      0      0      0      0      0      0    0.0  0.000      0      0  0.000  0.000  0.000  0.000  0.000  0.000  0.000   0.00   0.00   0.00      0      0      0.0   0.00   0.00   0.09    0.00    0.00    0.00    0.00    0.00      0      0      0       0       0 20.00
 2014 188    14     3    0.0      0   0.00      0      0      0      0      0      0      0    0.0  0.000      0      0  0.000  0.000  0.000  0.000  0.000  0.000  0.000   0.00   0.00   0.00      0      0      0.0   0.00   0.00   0.12    0.00    0.00    0.00    0.00    0.00      0      0      0       0       0 19.17
 2014 189    15     4    0.0      0   0.00      0      0      0      0      0      0      0    0.0  0.000      0      0  0.000  0.000  0.000  0.000  0.000  0.000  0.000   0.00   0.00   0.00      0      0      0.0   0.00   0.00   0.15    0.00    0.00    0.00    0.00    0.00      0      0      0       0       0 20.31
 2014 190    16     5    2.0      1   0.00     12     12      0     12     25     25      0    0.0  0.000      0      0  0.000  0.000  0.012  0.000  0.000  0.000  0.000   4.40   0.00   0.00      0      0     33.3   0.00   0.00   0.17    0.25    0.12    0.00    0.00    0.00      0      0      0       0       0 20.41
 2014 191    17     6    2.0      1   0.01     12     12      0     13     25     25      0    0.0  0.000      0      0  0.000  0.000  0.006  0.000  0.000  0.000  0.000   4.40   0.00   0.00      0      0     72.9   0.00   0.00   0.19    0.25    0.12    0.00    0.00    0.00      0      0      0       0       0 23.00
 2014 192    18     7    3.0      1   0.01     12     12      0     13     25     25      0    0.0  0.000      0      0  0.000  0.000  0.000  0.000  0.000  0.000  0.000   4.40   0.00   0.00      0      0    117.9   0.01   0.00   0.22    0.25    0.13    0.00    0.00    0.00      0      0      0       0       0 22.71
 2014 193    19     8    4.0      1   0.03     12     12      0     14     25     25      0    0.0  0.000      0      0  0.000  0.000  0.000  0.000  0.000  0.000  0.000   4.40   0.00   0.00      0      0    271.8   0.02   0.00   0.24    0.26    0.14    0.00    0.00    0.00      0      0      0       0       0 22.63
 2014 194    20     9    4.0      1   0.06     17     12      0     14     30     30      0    0.0  0.000      0      0  0.000  0.000  0.000  0.000  0.000  0.000  0.000   3.66   0.00   0.00      0      0    320.2   0.03   0.00   0.26    0.26    0.14    0.01    0.00    0.00      0      0      0       0       0 21.91
 2014 195    21    10    5.0      1   0.08     28     12      0     15     41     41      0    0.0  0.000      0      0  0.000  0.000  0.000  0.000  0.000  0.000  0.000   3.07   0.00   0.00      0      0    289.9   0.04   0.00   0.28    0.27    0.14    0.01    0.00    0.00      0      0      0       0       0 21.85
 2014 196    22    11    5.0      1   0.11     38     12      0     17     50     50      0    0.0  0.000      0      0  0.000  0.000  0.000  0.000  0.000  0.000  0.000   3.36   0.00   0.00      0      0    292.1   0.06   0.00   0.30    0.28    0.15    0.02    0.00    0.00      0      0      0       0       0 23.32
 2014 197    23    12    6.0      1   0.13     47     12      0     18     59     59      0    0.0  0.000      0      0  0.000  0.000  0.000  0.000  0.000  0.000  0.000   3.46   0.00   0.00      0      0    279.6   0.07   0.00   0.32    0.29    0.16    0.03    0.00    0.00      0      0      0       0       0 22.19
 2014 198    24    13    6.0      1   0.15     55     12      0     20     68     68      0    0.0  0.000      0      0  0.000  0.000  0.000  0.000  0.000  0.000  0.000   3.49   0.00   0.00      0      0    269.6   0.08   0.00   0.35    0.29    0.17    0.04    0.00    0.00      0      0      0       0       0 21.09
 2014 199    25    14    7.0      1   0.17     64     12      0     21     76     76      0    0.0  0.000      0      0  0.000  0.000  0.000  0.000  0.000  0.000  0.000   3.53   0.00   0.00      0      0    261.9   0.09   0.00   0.38    0.30    0.18    0.05    0.00    0.00      0      0      0       0       0 18.28
 2014 200    26    15    7.0      1   0.20     80     12      0     24     92     92      0    0.0  0.000      0      0  0.000  0.000  0.000  0.000  0.000  0.000  0.000   3.23   0.00   0.00      0      0    250.0   0.11   0.00   0.42    0.31    0.19    0.06    0.01    0.00      0      0      0       0       1 20.84
 2014 201    27    16    8.0      2   0.23     97     12      0     27    110    110      0    0.0  0.000      0      0  0.000  0.000  0.000  0.000  0.000  0.000  0.000   3.23   0.00   0.00      0      0    239.6   0.13   0.00   0.47    0.33    0.21    0.07    0.02    0.00      0      0      0       0       1 22.57
 2014 202    28    17    8.0      2   0.27    116     12      0     30    129    129      0    0.0  0.000      0      0  0.000  0.000  0.006  0.000  0.000  0.000  0.000   3.32   0.00   0.00      0      0    230.8   0.14   0.00   0.51    0.34    0.22    0.09    0.03    0.00      0      0      0       0       1 22.43
 2014 203    29    18    8.0      2   0.28    125     12      0     31    137    137      0    0.0  0.000      0      0  0.000  0.000  0.000  0.000  0.000  0.000  0.000   3.58   0.00   0.00      0      0    227.3   0.15   0.00   0.55    0.34    0.23    0.09    0.03    0.00      0      0      0       0       1 17.67
 2014 204    30    19    9.0      2   0.32    145     12      0     35    157    157      0    0.0  0.000      0      0  0.000  0.000  0.000  0.000  0.000  0.000  0.000   3.79   0.00   0.00      0      0    220.3   0.17   0.00   0.58    0.35    0.24    0.11    0.04    0.01      0      0      0       0       1 18.35
 2014 205    31    20    9.0      2   0.36    169     12      0     39    181    181      0    0.0  0.000      0      0  0.000  0.000  0.000  0.000  0.000  0.000  0.000   3.73   0.00   0.00      0      0    213.3   0.19   0.00   0.60    0.36    0.26    0.13    0.05    0.02      0      0      0       0       1 20.03
 2014 206    32    21   10.0      3   0.40    196     12      0     40    209    209      0    0.0  0.000      0      0  0.000  0.000  0.000  0.000  0.000  0.000  0.000   3.62   0.00   0.00      0      0    205.7   0.22   0.00   0.60    0.37    0.27    0.13    0.05    0.02      0      0      0       0       1 19.75
 2014 207    33    22   10.0      3   0.46    228     13      0     42    241    241      0    0.0  0.000      0      0  0.000  0.000  0.000  0.000  0.000  0.000  0.000   3.54   0.00   0.00      0      0    200.4   0.25   0.00   0.60    0.37    0.27    0.14    0.05    0.03      0      0      0       0       2 20.07
 2014 208    34    23   11.0      3   0.54    277     15      0     45    292    292      0    0.0  0.000      0      0  0.000  0.064  0.000  0.000  0.000  0.000  0.000   3.48   0.00   0.00      0      0    193.4   0.29   0.00   0.60    0.38    0.28    0.15    0.06    0.03      0      0      0       0       2 21.52
 2014 209    35    24   11.0      3   0.60    318     17      0     47    335    335      0    0.0  0.000      0      0  0.000  0.000  0.000  0.000  0.000  0.000  0.000   3.42   0.00   0.00      0      0    188.7   0.32   0.00   0.60    0.39    0.29    0.16    0.06    0.04      0      0      0       0       2 21.60
 2014 210    36    25   12.0      3   0.65    350     20      0     48    370    370      0    0.0  0.000      0      0  0.000  0.000  0.000  0.000  0.000  0.000  0.000   3.37   0.00   0.00      0      0    185.3   0.35   0.00   0.60    0.39    0.30    0.17    0.07    0.04      0      0      0       0       2 20.50
 2014 211    37    26   12.0      3   0.74    412     29      0     52    441    441      0    0.0  0.000      0      0  0.000  0.221  0.000  0.000  0.000  0.000  0.000   3.31   0.00   0.00      0      0    179.9   0.40   0.00   0.60    0.40    0.32    0.18    0.07    0.05      0      0      0       0       3 21.76
 2014 212    38    27   13.0      3   0.81    459     38      0     55    498    498      0    0.0  0.000      0      0  0.000  0.000  0.000  0.000  0.000  0.000  0.000   3.25   0.00   0.00      0      0    176.2   0.44   0.00   0.60    0.41    0.33    0.20    0.08    0.06      0      0      0       0       3 20.70
 2014 213    39    28   13.0      3   0.88    508     50      0     58    558    558      0    0.0  0.000      0      0  0.000  0.005  0.000  0.000  0.000  0.000  0.000   3.20   0.00   0.00      0      0    172.9   0.47   0.00   0.60    0.42    0.34    0.21    0.09    0.06      0      0      0       0       3 20.90
 2014 214    40    29   13.0      3   0.91    530     57      0     60    588    588      0    0.0  0.000      0      0  0.000  0.000  0.000  0.000  0.000  0.000  0.000   3.15   0.00   0.00      0      0    171.5   0.49   0.00   0.60    0.42    0.35    0.21    0.09    0.07      0      0      0       0       3 18.75
 2014 215    41    30   14.0      3   0.96    569     72      0     62    641    641      0    0.0  0.000      0      0  0.000  0.000  0.000  0.000  0.000  0.000  0.000   3.10   0.00   0.00      0      0    169.2   0.52   0.00   0.60    0.43    0.36    0.23    0.09    0.07      0      0      0       0       4 19.15
 2014 216    42    31   14.0      3   1.03    620     96      0     66    716    716      0    0.0  0.000      0      0  0.000  0.095  0.000  0.000  0.000  0.000  0.000   3.06   0.00   0.00      0      0    166.5   0.56   0.00   0.60    0.44    0.38    0.25    0.10    0.08      0      0      0       0       4 19.60
 2014 217    43    32   15.0      3   1.10    671    123      0     70    794    794      0    0.0  0.000      0      0  0.000  0.076  0.000  0.000  0.000  0.000  0.000   3.01   0.00   0.00      0      0    164.0   0.59   0.00   0.60    0.45    0.39    0.27    0.11    0.09      0      0      0       0       4 19.45
 2014 218    44    33   15.0      3   1.16    717    151      0     74    868    868      0    0.0  0.000      0      0  0.000  0.000  0.000  0.000  0.000  0.000  0.000   2.96   0.00   0.00      0      0    161.9   0.63   0.00   0.60    0.46    0.41    0.28    0.12    0.10      0      0      0       0       5 18.50
 2014 219    45    34   16.0      3   1.23    771    190      0     79    961    961      0    0.0  0.000      0      0  0.000  0.142  0.000  0.000  0.000  0.000  0.000   2.92   0.00   0.00      0      0    159.7   0.66   0.00   0.60    0.48    0.43    0.31    0.12    0.11      0      0      0       0       5 20.05
 2014 220    46    35   16.0      3   1.28    805    219      0     82   1024   1024      0    0.0  0.000      0      0  0.000  0.000  0.000  0.000  0.000  0.000  0.000   2.87   0.00   0.00      0      0    158.4   0.69   0.00   0.60    0.49    0.44    0.32    0.13    0.11      0      0      0       0       5 19.60
 2014 221    47    36   16.0      3   1.31    833    245      0     84   1078   1078      0    0.0  0.000      0      0  0.000  0.000  0.000  0.000  0.000  0.000  0.000   2.83   0.00   0.00      0      0    157.3   0.71   0.00   0.60    0.50    0.45    0.33    0.14    0.12      0      0      0       0       6 18.60
 2014 222    48    37   17.0      3   1.37    884    298      0     90   1181   1181      0    0.0  0.000      0      0  0.000  0.125  0.000  0.000  0.000  0.000  0.000   2.79   0.00   0.00      0      0    155.6   0.74   0.00   0.60    0.51    0.48    0.36    0.15    0.13      0      0      0       0       6 18.50
 2014 223    49    38   17.0      3   1.43    932    354      0     95   1286   1286      0    0.0  0.000      0      0  0.000  0.092  0.000  0.000  0.000  0.000  0.000   2.75   0.00   0.00      0      0    154.0   0.77   0.00   0.60    0.53    0.50    0.38    0.16    0.14      0      0      0       0       7 19.50
 2014 224    50    39   18.0      3   1.47    960    389      0     98   1349   1349      0    0.0  0.000      0      0  0.000  0.000  0.000  0.000  0.000  0.000  0.000   2.70   0.00   0.00      0      0    153.1   0.79   0.00   0.60    0.54    0.52    0.40    0.16    0.14      0      0      0       0       7 19.35
 2014 225    51    40   18.0      3   1.51    994    450      0    103   1444   1445      0    0.0  0.000      1      0  0.000  0.000  0.000  0.000  0.000  0.000  0.000   2.67   0.00   0.00      0      1    152.1   0.81   0.00   0.60    0.55    0.54    0.42    0.17    0.16      0      0      0       0       8 17.75
 2014 226    52    41   19.0      3   1.55   1022    509      0    107   1531   1532      0    0.0  0.000      1      0  0.000  0.000  0.000  0.000  0.000  0.000  0.000   2.63   0.00   0.00      0      1    151.2   0.83   0.00   0.60    0.57    0.56    0.44    0.18    0.16      0      0      0       0       8 18.80
 2014 227    53    42   19.0      3   1.57   1043    560      0    111   1603   1605      0    0.0  0.000      2      0  0.000  0.000  0.000  0.000  0.000  0.000  0.000   2.59   0.00   0.00      0      2    150.7   0.85   0.00   0.60    0.58    0.58    0.46    0.18    0.17      0      0      0       0       9 18.30
 2014 228    54    43   19.0      3   1.59   1055    594      0    113   1649   1651      0    0.0  0.000      2      0  0.000  0.000  0.000  0.000  0.000  0.000  0.000   2.55   0.00   0.00      0      2    150.3   0.85   0.00   0.60    0.59    0.59    0.47    0.19    0.17      0      0      0       0       9 17.00
 2014 229    55    44   20.0      3   1.62   1085    680      0    119   1765   1771      0    0.0  0.000      6      0  0.000  0.014  0.000  0.000  0.000  0.000  0.000   2.52   0.00   0.00      0      6    149.5   0.87   0.00   0.60    0.60    0.62    0.50    0.20    0.19      0      0      0       0      10 18.55
 2014 230    56    45   20.0      3   1.64   1102    731      0    122   1833   1841      0    0.0  0.000      8      0  0.000  0.000  0.000  0.000  0.000  0.000  0.000   2.48   0.00   0.00      0      8    149.1   0.88   0.00   0.60    0.61    0.63    0.51    0.20    0.19      0      0      0       0      10 18.20
 2014 231    57    46   21.0      3   1.67   1125    804      0    127   1929   1942      0    0.0  0.000     13      0  0.000  0.000  0.000  0.000  0.000  0.000  0.000   2.45   0.00   0.01      0     13    148.5   0.90   0.00   0.60    0.62    0.66    0.54    0.21    0.20      0      0      0       0      11 19.55
 2014 232    58    47   21.0      3   1.71   1156    901      0    135   2057   2086      0    0.0  0.000     30      0  0.000  0.097  0.000  0.000  0.000  0.000  0.000   2.42   0.00   0.01      0     30    147.7   0.92   0.00   0.60    0.63    0.68    0.57    0.24    0.22      0      0      0       0      12 18.85
 2014 233    59    48   21.0      3   1.74   1183    985      0    141   2168   2211      0    0.0  0.000     43      0  0.000  0.000  0.000  0.000  0.000  0.000  0.000   2.38   0.00   0.02      0     43    147.0   0.94   0.00   0.60    0.64    0.70    0.60    0.27    0.23      0      0      0       0      12 20.60
 2014 234    60    49   21.0      3   1.76   1199   1036      0    144   2235   2286      0    0.0  0.000     50      0  0.000  0.000  0.000  0.000  0.000  0.000  0.000   2.34   0.00   0.02      0     50    146.6   0.95   0.00   0.60    0.64    0.70    0.61    0.29    0.24      0      0      0       0      13 16.95
 2014 235    61    50   21.0      3   1.78   1221   1101      0    149   2322   2388      0    0.0  0.000     66      0  0.000  0.000  0.000  0.000  0.000  0.000  0.000   2.32   0.00   0.03      0     66    146.1   0.96   0.00   0.60    0.65    0.71    0.63    0.31    0.25      0      0      0       0      14 17.65
 2014 236    62    51   21.0      3   1.82   1249   1174      0    156   2423   2515      0    0.0  0.000     92      0  0.000  0.000  0.000  0.000  0.000  0.000  0.000   2.29   0.00   0.04      0     92    145.5   0.98   0.00   0.60    0.66    0.72    0.65    0.33    0.28      0      0      0       0      15 20.10
 2014 237    63    52   21.0      3   1.86   1283   1251      0    164   2534   2670      0    0.0  0.000    135      0  0.000  0.000  0.000  0.000  0.000  0.000  0.000   2.27   0.00   0.05      0    135    144.7   1.00   0.00   0.60    0.67    0.74    0.68    0.36    0.31      0      0      0       0      15 20.80
 2014 238    64    53   21.0      4   1.77   1266   1272      0    165   2538   2715      0    0.0  0.000    176      0  0.000  0.000  0.000  0.000  0.000  0.000  0.000   2.26   0.00   0.06      0    176    139.7   1.00   0.00   0.60    0.67    0.74    0.68    0.37    0.32      0      0      0       0      15 17.05
 2014 239    65    54   21.0      4   1.76   1248   1310      0    170   2558   2831      0    0.0  0.000    273      0  0.000  0.000  0.000  0.000  0.000  0.000  0.000   2.25   0.00   0.10      0    273    141.0   1.00   0.00   0.60    0.68    0.75    0.70    0.39    0.34      0      0      0       0      15 19.10
 2014 240    66    55   21.0      4   1.75   1228   1345      0    176   2573   2963      0    0.0  0.000    390      0  0.000  0.000  0.000  0.000  0.000  0.000  0.000   2.23   0.00   0.13      0    390    142.5   1.00   0.00   0.60    0.69    0.77    0.72    0.40    0.36      0      0      0       0      15 21.20
 2014 241    67    56   21.0      4   1.74   1206   1375      0    182   2582   3096      0    0.0  0.000    514      0  0.000  0.000  0.000  0.000  0.000  0.000  0.000   2.22   0.00   0.17      0    514    144.2   1.00   0.00   0.60    0.70    0.78    0.74    0.42    0.38      0      0      0       0      15 21.45
 2014 242    68    57   21.0      4   1.73   1183   1399      0    187   2582   3208      0    0.0  0.000    626      0  0.000  0.000  0.000  0.000  0.000  0.000  0.000   2.22   0.00   0.20      0    626    146.2   1.00   0.00   0.60    0.71    0.79    0.76    0.44    0.40      0      0      0       0      15 21.75
 2014 243    69    58   21.0      4   1.72   1158   1413      0    190   2571   3275      0    0.0  0.000    704      0  0.000  0.000  0.000  0.000  0.000  0.000  0.000   2.23   0.00   0.21      0    704    148.5   1.00   0.00   0.60    0.71    0.80    0.77    0.45    0.41      0      0      0       0      15 20.35
 2014 244    70    59   21.0      4   1.71   1132   1429      0    194   2561   3361      0    0.0  0.000    800      0  0.000  0.000  0.000  0.000  0.000  0.000  0.000   2.24   0.00   0.24      0    800    151.2   1.00   0.00   0.60    0.72    0.81    0.78    0.46    0.43      0      0      0       0      15 19.00
 2014 245    71    60   21.0      4   1.70   1104   1439      0    196   2543   3406      0    0.0  0.000    863      0  0.000  0.000  0.000  0.000  0.000  0.000  0.000   2.26   0.00   0.25      0    863    154.2   1.00   0.00   0.60    0.72    0.81    0.79    0.47    0.43      0      0      0       0      15 18.95
 2014 246    72    61   21.0      5   1.64   1104   1439     54    204   2543   3460    780    6.9  0.016    917      6  0.000  0.000  0.000  0.000  0.000  0.000  0.000   2.22   5.87   0.27      0    917    148.2   1.00   0.00   0.60    0.73    0.83    0.82    0.49    0.46      0      0      0       0      15 21.88
 2014 247    73    62   21.0      5   1.62   1104   1439    129    225   2543   3535    780   16.5  0.036    992      6  0.000  0.000  0.000  0.000  0.000  0.000  0.000   2.17  12.97   0.28      0    992    146.6   1.00   0.00   0.60    0.77    0.89    0.90    0.56    0.54      0      0      0       0      15 20.60
 2014 248    74    63   21.0      5   1.60   1104   1399    218    224   2503   3584    780   27.9  0.061   1081      6  0.000  0.000  0.000  0.000  0.000  0.000  0.000   2.14  20.13   0.30      0   1081    144.8   1.00   0.00   0.60    0.77    0.89    0.90    0.56    0.54      0      0      0       0      15 19.40
 2014 249    75    64   21.0      5   1.57   1104   1426    287    236   2530   3680    780   36.8  0.078   1150      6  0.000  0.000  0.000  0.000  0.000  0.000  0.000   2.07  24.92   0.31      0   1150    142.3   1.00   0.00   0.60    0.79    0.92    0.95    0.60    0.58      0      0      0       0      15 21.10
 2014 250    76    65   21.0      5   1.54   1104   1438    374    241   2542   3779    780   47.9  0.099   1237      6  0.000  0.000  0.000  0.000  0.000  0.000  0.000   2.00  30.21   0.33      0   1237    139.7   1.00   0.00   0.60    0.79    0.93    0.96    0.61    0.60      0      0      0       0      15 19.55
 2014 251    77    66   21.0      5   1.51   1104   1439    454    254   2543   3860    780   58.2  0.118   1317      6  0.000  0.000  0.000  0.000  0.000  0.000  0.000   1.94  34.45   0.34      0   1317    136.5   1.00   0.00   0.60    0.82    0.96    1.02    0.66    0.65      0      0      0       0      15 20.15
 2014 252    78    67   21.0      5   1.47   1104   1439    532    264   2543   3939    780   68.2  0.135   1396      6  0.000  0.000  0.000  0.000  0.000  0.000  0.000   1.89  38.13   0.35      0   1396    132.8   1.00   0.00   0.60    0.84    0.99    1.05    0.69    0.69      0      0      0       0      15 20.30
 2014 253    79    68   21.0      5   1.43   1104   1403    626    263   2507   3996    780   80.2  0.157   1489      6  0.000  0.000  0.000  0.000  0.000  0.000  0.000   1.85  42.02   0.37      0   1489    129.1   1.00   0.00   0.60    0.84    0.99    1.05    0.69    0.69      0      0      0       0      15 17.65
 2014 254    80    69   21.0      5   1.37   1104   1433    701    276   2537   4101    780   89.9  0.171   1565      6  0.000  0.000  0.000  0.000  0.000  0.000  0.000   1.78  44.82   0.38      0   1565    124.3   1.00   0.00   0.60    0.86    1.02    1.10    0.73    0.74      0      0      0       0      15 20.55
 2014 255    81    70   21.0      5   1.31   1104   1428    783    275   2532   4179    780  100.4  0.187   1647      6  0.000  0.000  0.000  0.000  0.000  0.000  0.000   1.72  47.56   0.39      0   1647    119.0   1.00   0.00   0.60    0.86    1.02    1.10    0.73    0.74      0      0      0       0      15 20.00
 2014 256    82    71   21.0      5   1.25   1104   1439    854    291   2543   4260    780  109.5  0.200   1717      6  0.000  0.000  0.000  0.000  0.000  0.000  0.000   1.66  49.72   0.40      0   1717    112.8   1.00   0.00   0.60    0.88    1.06    1.17    0.79    0.80      0      0      0       0      15 20.95
 2014 257    83    72   21.0      5   1.17   1104   1423    927    290   2527   4317    780  118.9  0.215   1791      6  0.000  0.000  0.000  0.000  0.000  0.000  0.000   1.62  51.78   0.41      0   1791    106.0   1.00   0.00   0.60    0.88    1.06    1.17    0.79    0.80      0      0      0       0      15 20.72
 2014 258    84    73   21.0      5   1.09   1104   1439    997    302   2543   4404    780  127.9  0.226   1861      6  0.000  0.000  0.000  0.000  0.000  0.000  0.000   1.56  53.59   0.42      0   1861     98.3   1.00   0.00   0.60    0.90    1.08    1.21    0.83    0.85      0      0      0       0      15 21.00
 2014 259    85    74   21.0      5   1.00   1104   1412   1086    300   2516   4465    780  139.2  0.243   1949      6  0.000  0.000  0.000  0.000  0.000  0.000  0.000   1.52  55.70   0.44      0   1949     90.5   1.00   0.00   0.60    0.90    1.08    1.21    0.83    0.85      0      0      0       0      15 19.45
 2014 260    86    75   21.0      5   0.91   1104   1373   1179    299   2477   4519    780  151.2  0.261   2043      6  0.000  0.000  0.000  0.000  0.000  0.000  0.000   1.48  57.73   0.45      0   2043     82.6   1.00   0.00   0.60    0.90    1.08    1.21    0.83    0.85      0      0      0       0      15 18.00
 2014 261    87    76   21.0      5   0.81   1104   1346   1272    297   2450   4585    780  163.0  0.277   2135      6  0.000  0.000  0.000  0.000  0.000  0.000  0.000   1.43  59.56   0.47      0   2135     73.5   1.00   0.00   0.60    0.90    1.08    1.21    0.83    0.85      0      0      0       0      15 19.10
 2014 262    88    77   21.0      5   0.81   1104   1346   1272    297   2450   4585    780  163.0  0.277   2135      6  0.000  0.000  0.000  0.000  0.000  0.000  0.000   1.43  59.56   0.47      0   2135     73.5   1.00   0.00   0.60    0.90    1.08    1.21    0.83    0.85      0      0      0       0      15 20.15
 2014 263    89    78   21.0      5   0.81   1104   1346   1272    297   2450   4585    780  163.0  0.277   2135      6  0.000  0.000  0.000  0.000  0.000  0.000  0.000   1.43  59.56   0.47      0   2135     73.5   1.00   0.00   0.60    0.90    1.08    1.21    0.83    0.85      0      0      0       0      15 20.50
 2014 264    90    79   21.0      5   0.81   1104   1346   1272    297   2450   4585    780  163.0  0.277   2135      6  0.000  0.000  0.000  0.000  0.000  0.000  0.000   1.43  59.56   0.47      0   2135     73.5   1.00   0.00   0.60    0.90    1.08    1.21    0.83    0.85      0      0      0       0      15  0.00
 2014 265    91    80   21.0      5   0.81   1104   1346   1272    297   2450   4585    780  163.0  0.277   2135      6  0.000  0.000  0.000  0.000  0.000  0.000  0.000   1.43  59.56   0.47      0   2135     73.5   1.00   0.00   0.60    0.90    1.08    1.21    0.83    0.85      0      0      0       0      15 21.30
 2014 266    92    81   21.0      5   0.81   1104   1346   1272    297   2450   4585    780  163.0  0.277   2135      6  0.000  0.000  0.000  0.000  0.000  0.000  0.000   1.43  59.56   0.47      0   2135     73.5   1.00   0.00   0.60    0.90    1.08    1.21    0.83    0.85      0      0      0       0      15 22.15
 2014 267    93    82   21.0      5   0.81   1104   1346   1272    297   2450   4585    780  163.0  0.277   2135      6  0.000  0.000  0.000  0.000  0.000  0.000  0.000   1.43  59.56   0.47      0   2135     73.5   1.00   0.00   0.60    0.90    1.08    1.21    0.83    0.85      0      0      0       0      15 21.90
 2014 268    94    83   21.0      5   0.81   1104   1346   1272    297   2450   4585    780  163.0  0.277   2135      6  0.000  0.000  0.000  0.000  0.000  0.000  0.000   1.43  59.56   0.47      0   2135     73.5   1.00   0.00   0.60    0.90    1.08    1.21    0.83    0.85      0      0      0       0      15 21.65
 2014 269    95    84   21.0      5   0.81   1104   1346   1272    297   2450   4585    780  163.0  0.277   2135      6  0.000  0.000  0.000  0.000  0.000  0.000  0.000   1.43  59.56   0.47      0   2135     73.5   1.00   0.00   0.60    0.90    1.08    1.21    0.83    0.85      0      0      0       0      15 21.26
 2014 270    96    85   21.0      5   0.81   1104   1346   1272    297   2450   4585    780  163.0  0.277   2135      6  0.000  0.000  0.000  0.000  0.000  0.000  0.000   1.43  59.56   0.47      0   2135     73.5   1.00   0.00   0.60    0.90    1.08    1.21    0.83    0.85      0      0      0       0      15 17.25
 2014 271    97    86   21.0      5   0.81   1104   1346   1272    297   2450   4585    780  163.0  0.277   2135      6  0.000  0.000  0.000  0.000  0.000  0.000  0.000   1.43  59.56   0.47      0   2135     73.5   1.00   0.00   0.60    0.90    1.08    1.21    0.83    0.85      0      0      0       0      15 19.85
 2014 272    98    87   21.0      5   0.81   1104   1346   1272    297   2450   4585    780  163.0  0.277   2135      6  0.000  0.000  0.000  0.000  0.000  0.000  0.000   1.43  59.56   0.47      0   2135     73.5   1.00   0.00   0.60    0.90    1.08    1.21    0.83    0.85      0      0      0       0      15 22.14
 2014 273    99    88   21.0      5   0.81   1104   1346   1272    297   2450   4585    780  163.0  0.277   2135      6  0.000  0.000  0.000  0.000  0.000  0.000  0.000   1.43  59.56   0.47      0   2135     73.5   1.00   0.00   0.60    0.90    1.08    1.21    0.83    0.85      0      0      0       0      15 19.95
 2014 274   100    89   21.0      5   0.81   1104   1346   1272    297   2450   4585    780  163.0  0.277   2135      6  0.000  0.000  0.000  0.000  0.000  0.000  0.000   1.43  59.56   0.47      0   2135     73.5   1.00   0.00   0.60    0.90    1.08    1.21    0.83    0.85      0      0      0       0      15 20.45
 2014 275   101    90   21.0      5   0.81   1104   1346   1272    297   2450   4585    780  163.0  0.277   2135      6  0.000  0.000  0.000  0.000  0.000  0.000  0.000   1.43  59.56   0.47      0   2135     73.5   1.00   0.00   0.60    0.90    1.08    1.21    0.83    0.85      0      0      0       0      15 21.54
 2014 276   102    91   21.0      5   0.81   1104   1346   1272    297   2450   4585    780  163.0  0.277   2135      6  0.000  0.000  0.000  0.000  0.000  0.000  0.000   1.43  59.56   0.47      0   2135     73.5   1.00   0.00   0.60    0.90    1.08    1.21    0.83    0.85      0      0      0       0      15 22.21
 2014 277   103    92   21.0      5   0.81   1104   1346   1272    297   2450   4585    780  163.0  0.277   2135      6  0.000  0.000  0.000  0.000  0.000  0.000  0.000   1.43  59.56   0.47      0   2135     73.5   1.00   0.00   0.60    0.90    1.08    1.21    0.83    0.85      0      0      0       0      15 20.85
 2014 278   104    93   21.0      5   0.81   1104   1346   1272    297   2450   4585    780  163.0  0.277   2135      6  0.000  0.000  0.000  0.000  0.000  0.000  0.000   1.43  59.56   0.47      0   2135     73.5   1.00   0.00   0.60    0.90    1.08    1.21    0.83    0.85      0      0      0       0      15 21.60
 2014 279   105    94   21.0      5   0.81   1104   1346   1272    297   2450   4585    780  163.0  0.277   2135      6  0.000  0.000  0.000  0.000  0.000  0.000  0.000   1.43  59.56   0.47      0   2135     73.5   1.00   0.00   0.60    0.90    1.08    1.21    0.83    0.85      0      0      0       0      15 22.73
 2014 280   106    95   21.0      5   0.81   1104   1346   1272    297   2450   4585    780  163.0  0.277   2135      6  0.000  0.000  0.000  0.000  0.000  0.000  0.000   1.43  59.56   0.47      0   2135     73.5   1.00   0.00   0.60    0.90    1.08    1.21    0.83    0.85      0      0      0       0      15 23.28
 2014 281   107    96   21.0      5   0.81   1104   1346   1272    297   2450   4585    780  163.0  0.277   2135      6  0.000  0.000  0.000  0.000  0.000  0.000  0.000   1.43  59.56   0.47      0   2135     73.5   1.00   0.00   0.60    0.90    1.08    1.21    0.83    0.85      0      0      0       0      15 21.81
 2014 282   108    97   21.0      5   0.81   1104   1346   1272    297   2450   4585    780  163.0  0.277   2135      6  0.000  0.000  0.000  0.000  0.000  0.000  0.000   1.43  59.56   0.47      0   2135     73.5   1.00   0.00   0.60    0.90    1.08    1.21    0.83    0.85      0      0      0       0      15 22.53
 2014 283   109    98   21.0      5   0.81   1104   1346   1272    297   2450   4585    780  163.0  0.277   2135      6  0.000  0.000  0.000  0.000  0.000  0.000  0.000   1.43  59.56   0.47      0   2135     73.5   1.00   0.00   0.60    0.90    1.08    1.21    0.83    0.85      0      0      0       0      15 22.37
 2014 284   110    99   21.0      5   0.81   1104   1346   1272    297   2450   4585    780  163.0  0.277   2135      6  0.000  0.000  0.000  0.000  0.000  0.000  0.000   1.43  59.56   0.47      0   2135     73.5   1.00   0.00   0.60    0.90    1.08    1.21    0.83    0.85      0      0      0       0      15 21.90
 2014 285   111   100   21.0      5   0.81   1104   1346   1272    297   2450   4585    780  163.0  0.277   2135      6  0.000  0.000  0.000  0.000  0.000  0.000  0.000   1.43  59.56   0.47      0   2135     73.5   1.00   0.00   0.60    0.90    1.08    1.21    0.83    0.85      0      0      0       0      15 20.90
 2014 286   112   101   21.0      5   0.81   1104   1346   1272    297   2450   4585    780  163.0  0.277   2135      6  0.000  0.000  0.000  0.000  0.000  0.000  0.000   1.43  59.56   0.47      0   2135     73.5   1.00   0.00   0.60    0.90    1.08    1.21    0.83    0.85      0      0      0       0      15 21.85
 2014 287   113   102   21.0      5   0.81   1104   1346   1272    297   2450   4585    780  163.0  0.277   2135      6  0.000  0.000  0.000  0.000  0.000  0.000  0.000   1.43  59.56   0.47      0   2135     73.5   1.00   0.00   0.60    0.90    1.08    1.21    0.83    0.85      0      0      0       0      15 21.53
 2014 288   114   103   21.0      5   0.81   1104   1346   1272    297   2450   4585    780  163.0  0.277   2135      6  0.000  0.000  0.000  0.000  0.000  0.000  0.000   1.43  59.56   0.47      0   2135     73.5   1.00   0.00   0.60    0.90    1.08    1.21    0.83    0.85      0      0      0       0      15 22.84
 2014 289   115   104   21.0      5   0.81   1104   1346   1272    297   2450   4585    780  163.0  0.277   2135      6  0.000  0.000  0.000  0.000  0.000  0.000  0.000   1.43  59.56   0.47      0   2135     73.5   1.00   0.00   0.60    0.90    1.08    1.21    0.83    0.85      0      0      0       0      15 23.24
 2014 290   116   105   21.0      5   0.81   1104   1346   1272    297   2450   4585    780  163.0  0.277   2135      6  0.000  0.000  0.000  0.000  0.000  0.000  0.000   1.43  59.56   0.47      0   2135     73.5   1.00   0.00   0.60    0.90    1.08    1.21    0.83    0.85      0      0      0       0      15 22.37
 2014 291   117   106   21.0      5   0.81   1104   1346   1272    297   2450   4585    780  163.0  0.277   2135      6  0.000  0.000  0.000  0.000  0.000  0.000  0.000   1.43  59.56   0.47      0   2135     73.5   1.00   0.00   0.60    0.90    1.08    1.21    0.83    0.85      0      0      0       0      15 21.23
 2014 292   118   107   21.0      5   0.81   1104   1346   1272    297   2450   4585    780  163.0  0.277   2135      6  0.000  0.000  0.000  0.000  0.000  0.000  0.000   1.43  59.56   0.47      0   2135     73.5   1.00   0.00   0.60    0.90    1.08    1.21    0.83    0.85      0      0      0       0      15 21.59
 2014 293   119   108   21.0      5   0.81   1104   1346   1272    297   2450   4585    780  163.0  0.277   2135      6  0.000  0.000  0.000  0.000  0.000  0.000  0.000   1.43  59.56   0.47      0   2135     73.5   1.00   0.00   0.60    0.90    1.08    1.21    0.83    0.85      0      0      0       0      15 21.52
 2014 294   120   109   21.0      5   0.81   1104   1346   1272    297   2450   4585    780  163.0  0.277   2135      6  0.000  0.000  0.000  0.000  0.000  0.000  0.000   1.43  59.56   0.47      0   2135     73.5   1.00   0.00   0.60    0.90    1.08    1.21    0.83    0.85      0      0      0       0      15 21.80
 2014 295   121   110   21.0      5   0.81   1104   1346   1272    297   2450   4585    780  163.0  0.277   2135      6  0.000  0.000  0.000  0.000  0.000  0.000  0.000   1.43  59.56   0.47      0   2135     73.5   1.00   0.00   0.60    0.90    1.08    1.21    0.83    0.85      0      0      0       0      15 21.28
 2014 296   122   111   21.0      5   0.81   1104   1346   1272    297   2450   4585    780  163.0  0.277   2135      6  0.000  0.000  0.000  0.000  0.000  0.000  0.000   1.43  59.56   0.47      0   2135     73.5   1.00   0.00   0.60    0.90    1.08    1.21    0.83    0.85      0      0      0       0      15 22.67
 2014 297   123   112   21.0      5   0.81   1104   1346   1272    297   2450   4585    780  163.0  0.277   2135      6  0.000  0.000  0.000  0.000  0.000  0.000  0.000   1.43  59.56   0.47      0   2135     73.5   1.00   0.00   0.60    0.90    1.08    1.21    0.83    0.85      0      0      0       0      15 22.59
 2014 298   124   113   21.0      5   0.81   1104   1346   1272    297   2450   4585    780  163.0  0.277   2135      6  0.000  0.000  0.000  0.000  0.000  0.000  0.000   1.43  59.56   0.47      0   2135     73.5   1.00   0.00   0.60    0.90    1.08    1.21    0.83    0.85      0      0      0       0      15 22.14
 2014 299   125   114   21.0      5   0.81   1104   1346   1272    297   2450   4585    780  163.0  0.277   2135      6  0.000  0.000  0.000  0.000  0.000  0.000  0.000   1.43  59.56   0.47      0   2135     73.5   1.00   0.00   0.60    0.90    1.08    1.21    0.83    0.85      0      0      0       0      15 22.71
 2014 300   126   115   21.0      5   0.81   1104   1346   1272    297   2450   4585    780  163.0  0.277   2135      6  0.000  0.000  0.000  0.000  0.000  0.000  0.000   1.43  59.56   0.47      0   2135     73.5   1.00   0.00   0.60    0.90    1.08    1.21    0.83    0.85      0      0      0       0      15 22.31
 2014 301   127   116   21.0      5   0.81   1104   1346   1272    297   2450   4585    780  163.0  0.277   2135      6  0.000  0.000  0.000  0.000  0.000  0.000  0.000   1.43  59.56   0.47      0   2135     73.5   1.00   0.00   0.60    0.90    1.08    1.21    0.83    0.85      0      0      0       0      15 21.96
 2014 302   128   117   21.0      5   0.81   1104   1346   1272    297   2450   4585    780  163.0  0.277   2135      6  0.000  0.000  0.000  0.000  0.000  0.000  0.000   1.43  59.56   0.47      0   2135     73.5   1.00   0.00   0.60    0.90    1.08    1.21    0.83    0.85      0      0      0       0      15 22.78
 2014 303   129   118   21.0      5   0.81   1104   1346   1272    297   2450   4585    780  163.0  0.277   2135      6  0.000  0.000  0.000  0.000  0.000  0.000  0.000   1.43  59.56   0.47      0   2135     73.5   1.00   0.00   0.60    0.90    1.08    1.21    0.83    0.85      0      0      0       0      15 21.83
 2014 304   130   119   21.0      5   0.81   1104   1346   1272    297   2450   4585    780  163.0  0.277   2135      6  0.000  0.000  0.000  0.000  0.000  0.000  0.000   1.43  59.56   0.47      0   2135     73.5   1.00   0.00   0.60    0.90    1.08    1.21    0.83    0.85      0      0      0       0      15 22.84
 2014 305   131   120   21.0      5   0.81   1104   1346   1272    297   2450   4585    780  163.0  0.277   2135      6  0.000  0.000  0.000  0.000  0.000  0.000  0.000   1.43  59.56   0.47      0   2135     73.5   1.00   0.00   0.60    0.90    1.08    1.21    0.83    0.85      0      0      0       0      15 23.06
 2014 306   132   121   21.0      5   0.81   1104   1346   1272    297   2450   4585    780  163.0  0.277   2135      6  0.000  0.000  0.000  0.000  0.000  0.000  0.000   1.43  59.56   0.47      0   2135     73.5   1.00   0.00   0.60    0.90    1.08    1.21    0.83    0.85      0      0      0       0      15 22.36
 2014 307   133   122   21.0      5   0.81   1104   1346   1272    297   2450   4585    780  163.0  0.277   2135      6  0.000  0.000  0.000  0.000  0.000  0.000  0.000   1.43  59.56   0.47      0   2135     73.5   1.00   0.00   0.60    0.90    1.08    1.21    0.83    0.85      0      0      0       0      15 22.99
 2014 308   134   123   21.0      5   0.81   1104   1346   1272    297   2450   4585    780  163.0  0.277   2135      6  0.000  0.000  0.000  0.000  0.000  0.000  0.000   1.43  59.56   0.47      0   2135     73.5   1.00   0.00   0.60    0.90    1.08    1.21    0.83    0.85      0      0      0       0      15 23.02
 2014 309   135   124   21.0      5   0.81   1104   1346   1272    297   2450   4585    780  163.0  0.277   2135      6  0.000  0.000  0.000  0.000  0.000  0.000  0.000   1.43  59.56   0.47      0   2135     73.5   1.00   0.00   0.60    0.90    1.08    1.21    0.83    0.85      0      0      0       0      15 21.65
 2014 310   136   125   21.0      5   0.81   1104   1346   1272    297   2450   4585    780  163.0  0.277   2135      6  0.000  0.000  0.000  0.000  0.000  0.000  0.000   1.43  59.56   0.47      0   2135     73.5   1.00   0.00   0.60    0.90    1.08    1.21    0.83    0.85      0      0      0       0      15 20.80
 2014 311   137   126   21.0      5   0.81   1104   1346   1272    297   2450   4585    780  163.0  0.277   2135      6  0.000  0.000  0.000  0.000  0.000  0.000  0.000   1.43  59.56   0.47      0   2135     73.5   1.00   0.00   0.60    0.90    1.08    1.21    0.83    0.85      0      0      0       0      15 21.02
 2014 312   138   127   21.0      5   0.81   1104   1346   1272    297   2450   4585    780  163.0  0.277   2135      6  0.000  0.000  0.000  0.000  0.000  0.000  0.000   1.43  59.56   0.47      0   2135     73.5   1.00   0.00   0.60    0.90    1.08    1.21    0.83    0.85      0      0      0       0      15 20.82
 2014 313   139   128   21.0      5   0.81   1104   1346   1272    297   2450   4585    780  163.0  0.277   2135      6  0.000  0.000  0.000  0.000  0.000  0.000  0.000   1.43  59.56   0.47      0   2135     73.5   1.00   0.00   0.60    0.90    1.08    1.21    0.83    0.85      0      0      0       0      15 21.68
 2014 314   140   129   21.0      5   0.81   1104   1346   1272    297   2450   4585    780  163.0  0.277   2135      6  0.000  0.000  0.000  0.000  0.000  0.000  0.000   1.43  59.56   0.47      0   2135     73.5   1.00   0.00   0.60    0.90    1.08    1.21    0.83    0.85      0      0      0       0      15 21.99
 2014 315   141   130   21.0      5   0.81   1104   1346   1272    297   2450   4585    780  163.0  0.277   2135      6  0.000  0.000  0.000  0.000  0.000  0.000  0.000   1.43  59.56   0.47      0   2135     73.5   1.00   0.00   0.60    0.90    1.08    1.21    0.83    0.85      0      0      0       0      15 22.32
 2014 316   142   131   21.0      5   0.81   1104   1346   1272    297   2450   4585    780  163.0  0.277   2135      6  0.000  0.000  0.000  0.000  0.000  0.000  0.000   1.43  59.56   0.47      0   2135     73.5   1.00   0.00   0.60    0.90    1.08    1.21    0.83    0.85      0      0      0       0      15 21.41
 2014 317   143   132   21.0      5   0.81   1104   1346   1272    297   2450   4585    780  163.0  0.277   2135      6  0.000  0.000  0.000  0.000  0.000  0.000  0.000   1.43  59.56   0.47      0   2135     73.5   1.00   0.00   0.60    0.90    1.08    1.21    0.83    0.85      0      0      0       0      15 21.82
 2014 318   144   133   21.0      5   0.81   1104   1346   1272    297   2450   4585    780  163.0  0.277   2135      6  0.000  0.000  0.000  0.000  0.000  0.000  0.000   1.43  59.56   0.47      0   2135     73.5   1.00   0.00   0.60    0.90    1.08    1.21    0.83    0.85      0      0      0       0      15 21.56
 2014 319   145   134   21.0      5   0.81   1104   1346   1272    297   2450   4585    780  163.0  0.277   2135      6  0.000  0.000  0.000  0.000  0.000  0.000  0.000   1.43  59.56   0.47      0   2135     73.5   1.00   0.00   0.60    0.90    1.08    1.21    0.83    0.85      0      0      0       0      15 21.46
 2014 320   146   135   21.0      5   0.81   1104   1346   1272    297   2450   4585    780  163.0  0.277   2135      6  0.000  0.000  0.000  0.000  0.000  0.000  0.000   1.43  59.56   0.47      0   2135     73.5   1.00   0.00   0.60    0.90    1.08    1.21    0.83    0.85      0      0      0       0      15 21.03
 2014 321   147   136   21.0      5   0.81   1104   1346   1272    297   2450   4585    780  163.0  0.277   2135      6  0.000  0.000  0.000  0.000  0.000  0.000  0.000   1.43  59.56   0.47      0   2135     73.5   1.00   0.00   0.60    0.90    1.08    1.21    0.83    0.85      0      0      0       0      15 20.98
 2014 322   148   137   21.0      5   0.81   1104   1346   1272    297   2450   4585    780  163.0  0.277   2135      6  0.000  0.000  0.000  0.000  0.000  0.000  0.000   1.43  59.56   0.47      0   2135     73.5   1.00   0.00   0.60    0.90    1.08    1.21    0.83    0.85      0      0      0       0      15 21.34
 2014 323   149   138   21.0      5   0.81   1104   1346   1272    297   2450   4585    780  163.0  0.277   2135      6  0.000  0.000  0.000  0.000  0.000  0.000  0.000   1.43  59.56   0.47      0   2135     73.5   1.00   0.00   0.60    0.90    1.08    1.21    0.83    0.85      0      0      0       0      15 21.46
 2014 324   150   139   21.0      5   0.81   1104   1346   1272    297   2450   4585    780  163.0  0.277   2135      6  0.000  0.000  0.000  0.000  0.000  0.000  0.000   1.43  59.56   0.47      0   2135     73.5   1.00   0.00   0.60    0.90    1.08    1.21    0.83    0.85      0      0      0       0      15 21.38
 2014 325   151   140   21.0      5   0.81   1104   1346   1272    297   2450   4585    780  163.0  0.277   2135      6  0.000  0.000  0.000  0.000  0.000  0.000  0.000   1.43  59.56   0.47      0   2135     73.5   1.00   0.00   0.60    0.90    1.08    1.21    0.83    0.85      0      0      0       0      15 19.75
 2014 326   152   141   21.0      5   0.81   1104   1346   1272    297   2450   4585    780  163.0  0.277   2135      6  0.000  0.000  0.000  0.000  0.000  0.000  0.000   1.43  59.56   0.47      0   2135     73.5   1.00   0.00   0.60    0.90    1.08    1.21    0.83    0.85      0      0      0       0      15 19.33
 2014 327   153   142   21.0      5   0.81   1104   1346   1272    297   2450   4585    780  163.0  0.277   2135      6  0.000  0.000  0.000  0.000  0.000  0.000  0.000   1.43  59.56   0.47      0   2135     73.5   1.00   0.00   0.60    0.90    1.08    1.21    0.83    0.85      0      0      0       0      15 19.50
 2014 328   154   143   21.0      5   0.81   1104   1346   1272    297   2450   4585    780  163.0  0.277   2135      6  0.000  0.000  0.000  0.000  0.000  0.000  0.000   1.43  59.56   0.47      0   2135     73.5   1.00   0.00   0.60    0.90    1.08    1.21    0.83    0.85      0      0      0       0      15 20.33
 2014 329   155   144   21.0      5   0.81   1104   1346   1272    297   2450   4585    780  163.0  0.277   2135      6  0.000  0.000  0.000  0.000  0.000  0.000  0.000   1.43  59.56   0.47      0   2135     73.5   1.00   0.00   0.60    0.90    1.08    1.21    0.83    0.85      0      0      0       0      15 21.04
 2014 330   156   145   21.0      5   0.81   1104   1346   1272    297   2450   4585    780  163.0  0.277   2135      6  0.000  0.000  0.000  0.000  0.000  0.000  0.000   1.43  59.56   0.47      0   2135     73.5   1.00   0.00   0.60    0.90    1.08    1.21    0.83    0.85      0      0      0       0      15 19.74
