*SOIL INORGANIC N BALANCE

*DSSAT Cropping System Model Ver. 4.7.2.000 -release      OCT 15, 2021; 17:59:33
                                                                                
*RUN   1        :             CSM335_date_1 MZCER047 ITSA1301    1              
 MODEL          : MZCER047 - Maize                                              
 EXPERIMENT     : ITSA1301 SG CALIBRATION SETUP OF SORGHUM SOWING DATES         
 DATA PATH      :                                                               
 TREATMENT  1   :             CSM335_date_1 MZCER047                            
  


!SOIL INORGANIC N BALANCE                         Initial               Final
!                                                Year/Doy            Year/Doy
!                                                2014/175            2014/330
!                                               (kg[N]/ha)          (kg[N]/ha)
! Soil N state variables:
!   Soil NO3                                        31.92               72.45
!   Soil NH4                                         5.04                0.51
!   Soil Urea                                        0.00                0.00
!   Soil N gases                                     0.00                0.02

! N additions:
!   Fertilizer N                                     0.00
!   Mineralized N                                  177.18

! N subtractions:
!   N immobilized                                                       23.41
!   N leached                                                           58.72
!   N loss to tile drainage                                              0.00
!   N Uptake From Soil                                                  58.07
!   NH3 loss                                                             0.00
!   N2O loss                                                             0.22
!   N2 loss                                                              0.50
!   NO loss                                                              0.24

!   Total N balance                                214.14              214.14
!   Balance                                                            -0.000
