*Soil Inorganic Nitrogen daily output file

*DSSAT Cropping System Model Ver. 4.7.2.000 -release      OCT 15, 2021; 17:59:33
                                                                                
*RUN   1        :             CSM335_date_1 MZCER047 ITSA1301    1              
 MODEL          : MZCER047 - Maize                                              
 EXPERIMENT     : ITSA1301 SG CALIBRATION SETUP OF SORGHUM SOWING DATES         
 DATA PATH      :                                                               
 TREATMENT  1   :             CSM335_date_1 MZCER047                            
  
!                                                    NO3 (ppm) by soil depth (cm):           NH4 (ppm) by soil depth (cm):
!                                                     0-5    5-15   15-30   30-45   45-60     0-5    5-15   15-30   30-45   45-60
@YEAR DOY   DAS  NAPC  NI#M    NIAD   NITD   NHTD    NI1D    NI2D    NI3D    NI4D    NI5D    NH1D    NH2D    NH3D    NH4D    NH5D    NMNC    NITC    NDNC    NIMC    AMLC   NNMNC    NUCM    NLCC    TDFC
 2014 174     0     0     0    37.0   31.9    5.0    3.80    3.80    3.80    3.80    3.80    0.60    0.60    0.60    0.60    0.60    0.00    0.00    0.00    0.00    0.00    0.00    0.00    0.00    0.00
 2014 175     1     0     0    37.6   32.7    4.9    3.89    3.89    3.89    3.89    3.89    0.71    0.66    0.66    0.51    0.51    0.78    0.79    0.00    0.10    0.00    0.68    0.00    0.00    0.00
 2014 176     2     0     0    38.3   33.5    4.8    4.06    3.98    4.00    3.97    3.97    0.78    0.70    0.70    0.43    0.43    1.55    1.57    0.00    0.19    0.00    1.35    0.00    0.00    0.00
 2014 177     3     0     0    39.0   34.3    4.7    4.22    4.08    4.11    4.04    4.04    0.83    0.74    0.74    0.36    0.37    2.32    2.36    0.00    0.29    0.00    2.03    0.00    0.00    0.00
 2014 178     4     0     0    39.7   35.1    4.6    4.40    4.19    4.24    4.10    4.10    0.85    0.77    0.77    0.30    0.31    3.10    3.18    0.00    0.39    0.00    2.71    0.00    0.00    0.00
 2014 179     5     0     0    40.5   36.0    4.5    4.66    4.32    4.38    4.16    4.16    1.02    0.79    0.79    0.25    0.25    4.08    4.06    0.00    0.52    0.00    3.56    0.00    0.00    0.00
 2014 180     6     0     0    41.4   36.9    4.5    4.98    4.45    4.53    4.21    4.21    1.10    0.80    0.81    0.20    0.21    5.06    5.00    0.00    0.64    0.00    4.42    0.00    0.00    0.00
 2014 181     7     0     0    42.2   37.9    4.4    5.33    4.60    4.69    4.24    4.25    1.16    0.80    0.82    0.17    0.17    6.06    5.96    0.00    0.77    0.00    5.29    0.00    0.00    0.00
 2014 182     8     0     0    43.1   38.8    4.2    5.71    4.74    4.86    4.28    4.28    1.16    0.80    0.82    0.14    0.14    7.02    6.92    0.00    0.90    0.00    6.12    0.00    0.00    0.00
 2014 183     9     0     0    44.0   39.7    4.2    6.08    4.88    5.03    4.30    4.31    1.29    0.80    0.82    0.11    0.12    8.08    7.85    0.00    1.04    0.00    7.04    0.00    0.00    0.00
 2014 184    10     0     0    44.8   40.7    4.2    6.49    5.02    5.19    4.32    4.33    1.33    0.80    0.82    0.09    0.10    9.08    8.77    0.00    1.17    0.00    7.91    0.00    0.00    0.00
 2014 185    11     0     0    45.6   41.6    4.1    5.38    5.93    5.36    4.34    4.35    1.31    0.80    0.82    0.08    0.08   10.03    9.68    0.00    1.29    0.00    8.73    0.00    0.00    0.00
 2014 186    12     0     1    46.7   42.4    4.3    5.49    6.22    5.51    4.35    4.36    1.62    0.83    0.82    0.07    0.07   11.29   10.56    0.00    1.46    0.00    9.82    0.00    0.00    0.00
 2014 187    13     0     1    47.8   43.4    4.4    7.18    6.21    5.51    4.30    4.32    1.75    0.86    0.81    0.06    0.06   12.46   11.50    0.00    1.62    0.00   10.85    0.00    0.00    0.00
 2014 188    14     0     1    48.7   44.3    4.4    7.68    6.37    5.65    4.30    4.33    1.79    0.88    0.81    0.05    0.05   13.54   12.42    0.00    1.76    0.00   11.78    0.00    0.00    0.00
 2014 189    15     0     1    49.6   45.2    4.4    8.18    6.53    5.79    4.31    4.34    1.77    0.89    0.81    0.04    0.05   14.55   13.32    0.00    1.90    0.00   12.65    0.00    0.00    0.00
 2014 190    16     0     1    50.4   46.0    4.3    8.66    6.69    5.92    4.32    4.34    1.72    0.90    0.80    0.04    0.04   15.48   14.17    0.00    2.02    0.00   13.46    0.00    0.00    0.00
 2014 191    17     0     1    51.1   46.9    4.3    9.13    6.84    6.05    4.32    4.35    1.64    0.91    0.80    0.04    0.04   16.37   15.01    0.00    2.14    0.00   14.23    0.00    0.00    0.00
 2014 192    18     0     1    51.9   47.7    4.2    9.59    7.00    6.18    4.33    4.36    1.54    0.91    0.80    0.03    0.04   17.24   15.85    0.00    2.26    0.00   14.98    0.00    0.00    0.00
 2014 193    19     0     1    52.6   48.6    4.1   10.04    7.16    6.32    4.33    4.36    1.42    0.91    0.79    0.03    0.03   18.11   16.71    0.00    2.38    0.00   15.73    0.00    0.00    0.00
 2014 194    20     0     1    53.4   49.4    4.0   10.46    7.33    6.46    4.34    4.37    1.33    0.90    0.78    0.03    0.03   18.96   17.55    0.00    2.49    0.00   16.47    0.00    0.00    0.00
 2014 195    21     0     1    54.1   50.2    3.9   10.85    7.50    6.60    4.34    4.37    1.25    0.89    0.77    0.03    0.03   19.82   18.39    0.00    2.61    0.00   17.21    0.00    0.00    0.00
 2014 196    22     0     1    54.8   51.0    3.8   11.17    7.65    6.74    4.34    4.38    1.18    0.88    0.76    0.02    0.03   20.65   19.19    0.00    2.72    0.00   17.92    0.06    0.00    0.00
 2014 197    23     0     1    55.0   51.3    3.7   11.27    7.64    6.87    4.35    4.38    1.11    0.86    0.75    0.02    0.03   21.46   19.97    0.00    2.84    0.00   18.62    0.52    0.00    0.00
 2014 198    24     0     1    55.3   51.7    3.6   11.42    7.65    6.99    4.35    4.39    1.05    0.84    0.74    0.02    0.02   22.22   20.71    0.00    2.94    0.00   19.28    0.89    0.00    0.00
 2014 199    25     0     1    55.6   52.1    3.5    7.61    9.64    7.09    4.35    4.39    1.01    0.82    0.74    0.02    0.02   22.95   21.40    0.00    3.04    0.00   19.91    1.23    0.00    0.00
 2014 200    26     0     1    56.2   52.5    3.7    7.41    9.86    7.20    4.35    4.39    1.30    0.84    0.73    0.02    0.02   24.06   22.12    0.00    3.19    0.00   20.87    1.57    0.00    0.00
 2014 201    27     0     1    56.8   53.0    3.8    9.57    9.53    7.05    4.29    4.34    1.45    0.85    0.72    0.02    0.02   25.11   22.92    0.00    3.33    0.00   21.77    1.90    0.00    0.00
 2014 202    28     0     1    57.0   53.2    3.8    9.78    9.47    7.12    4.28    4.34    1.48    0.85    0.71    0.02    0.02   26.06   23.71    0.00    3.46    0.00   22.59    2.50    0.00    0.00
 2014 203    29     0     1    56.9   53.2    3.8    3.56    9.72    9.05    4.27    4.35    1.44    0.84    0.70    0.02    0.02   26.93   24.48    0.00    3.58    0.00   23.34    3.28    0.00    0.00
 2014 204    30     0     1    57.7   53.3    4.4    3.50    8.90    9.67    4.26    4.35    1.64    1.16    0.73    0.02    0.02   28.53   25.18    0.00    3.80    0.00   24.73    3.92    0.00    0.00
 2014 205    31     0     1    58.1   53.2    4.9    4.94    8.77    9.37    4.18    4.30    1.72    1.39    0.79    0.02    0.02   30.32   26.15    0.00    4.05    0.00   26.27    5.03    0.00    0.00
 2014 206    32     0     1    58.7   53.5    5.2    5.30    8.83    9.38    4.16    4.29    1.71    1.55    0.82    0.02    0.02   31.97   27.22    0.00    4.28    0.00   27.69    5.86    0.00    0.00
 2014 207    33     0     1    59.2   53.9    5.3    5.65    8.93    9.40    4.14    4.28    1.66    1.65    0.85    0.02    0.02   33.48   28.31    0.00    4.49    0.00   28.99    6.65    0.00    0.00
 2014 208    34     0     1    59.5   54.0    5.4    5.94    8.98    9.37    4.12    4.27    1.65    1.71    0.86    0.02    0.02   34.95   29.38    0.00    4.69    0.00   30.25    7.64    0.00    0.00
 2014 209    35     0     1    59.0   53.6    5.4    6.13    8.91    9.23    4.07    4.25    1.57    1.72    0.85    0.02    0.02   36.37   30.52    0.00    4.89    0.00   31.47    9.33    0.00    0.00
 2014 210    36     0     1    58.9   53.6    5.3    6.37    8.95    9.17    4.04    4.22    1.49    1.71    0.85    0.02    0.02   37.75   31.69    0.00    5.09    0.00   32.67   10.63    0.00    0.00
 2014 211    37     0     1    59.0   53.8    5.2    5.59    9.58    9.15    4.01    4.21    1.39    1.70    0.84    0.02    0.02   39.07   32.85    0.00    5.27    0.00   33.80   11.66    0.00    0.00
 2014 212    38     0     1    58.1   52.9    5.2    5.09    9.69    8.94    3.95    4.16    1.51    1.67    0.82    0.02    0.02   40.61   34.01    0.00    5.48    0.00   35.13   13.84    0.00    0.00
 2014 213    39     0     1    57.8   52.6    5.2    6.21    9.57    8.64    3.87    4.09    1.60    1.67    0.80    0.02    0.02   42.14   35.20    0.00    5.68    0.00   36.46   15.48    0.00    0.00
 2014 214    40     0     1    57.3   52.2    5.1    3.20    8.75   10.09    3.82    4.04    1.58    1.64    0.79    0.02    0.02   43.52   36.36    0.00    5.87    0.00   37.65   17.18    0.00    0.00
 2014 215    41     0     1    58.0   52.5    5.5    3.33    8.14   10.66    3.79    4.02    1.73    1.76    0.85    0.02    0.02   45.14   37.30    0.00    6.09    0.00   39.05   17.85    0.00    0.00
 2014 216    42     0     1    58.2   52.3    5.9    4.01    7.92   10.62    3.73    3.96    1.80    1.81    0.94    0.02    0.02   46.94   38.43    0.00    6.34    0.00   40.60   19.27    0.00    0.00
 2014 217    43     0     1    57.6   51.7    5.9    4.92    7.88   10.18    3.64    3.89    1.76    1.79    1.00    0.02    0.02   48.63   39.64    0.00    6.57    0.00   42.06   21.30    0.00    0.00
 2014 218    44     0     1    56.9   51.0    5.9    5.14    7.82    9.93    3.59    3.83    1.66    1.76    1.04    0.02    0.02   50.17   40.83    0.00    6.79    0.00   43.38   23.36    0.00    0.00
 2014 219    45     0     1    56.2   50.4    5.8    5.34    7.79    9.71    3.54    3.78    1.54    1.71    1.05    0.02    0.02   51.56   41.98    0.00    6.98    0.00   44.58   25.25    0.00    0.00
 2014 220    46     0     1    54.9   49.4    5.5    5.45    7.66    9.41    3.47    3.72    1.41    1.64    1.04    0.02    0.02   52.89   43.14    0.00    7.16    0.00   45.72   27.62    0.00    0.00
 2014 221    47     0     1    54.6   49.2    5.4    4.21    8.43    9.31    3.44    3.68    1.32    1.59    1.03    0.02    0.02   54.15   44.28    0.00    7.33    0.00   46.82   29.02    0.00    0.00
 2014 222    48     0     1    54.7   49.2    5.5    4.15    8.62    9.27    3.41    3.64    1.46    1.61    1.02    0.02    0.02   55.57   45.33    0.00    7.52    0.00   48.04   30.15    0.00    0.00
 2014 223    49     0     1    53.4   48.0    5.4    4.88    8.35    8.79    3.31    3.55    1.49    1.58    0.97    0.02    0.02   56.90   46.41    0.00    7.70    0.00   49.20   32.67    0.00    0.00
 2014 224    50     0     1    52.0   46.8    5.2    4.74    8.27    8.48    3.25    3.48    1.45    1.53    0.92    0.02    0.02   58.10   47.47    0.00    7.85    0.00   50.25   35.10    0.00    0.00
 2014 225    51     0     1    51.8   46.7    5.1    4.98    8.29    8.41    3.21    3.44    1.50    1.52    0.89    0.02    0.02   59.30   48.48    0.00    8.00    0.00   51.30   36.28    0.00    0.00
 2014 226    52     0     1    50.7   45.7    4.9    5.10    8.09    8.16    3.15    3.37    1.46    1.46    0.85    0.02    0.02   60.37   49.44    0.00    8.14    0.00   52.23   38.38    0.00    0.00
 2014 227    53     0     1    49.7   45.0    4.7    5.24    7.95    7.98    3.10    3.31    1.38    1.41    0.82    0.02    0.02   61.34   50.36    0.00    8.26    0.00   53.08   40.15    0.00    0.00
 2014 228    54     0     1    49.2   44.6    4.6    3.16    8.49    8.22    3.06    3.27    1.35    1.36    0.79    0.02    0.02   62.25   51.21    0.00    8.37    0.00   53.87   41.47    0.00    0.00
 2014 229    55     0     1    49.6   44.8    4.8    3.14    8.18    8.55    3.03    3.24    1.48    1.45    0.78    0.02    0.02   63.35   51.94    0.00    8.51    0.00   54.84   42.09    0.00    0.00
 2014 230    56     0     1    48.0   43.3    4.8    3.59    7.89    8.07    2.94    3.14    1.51    1.46    0.76    0.02    0.02   64.46   52.76    0.00    8.65    0.00   55.82   44.59    0.00    0.00
 2014 231    57     0     1    47.9   43.1    4.8    2.43    7.11    9.00    2.90    3.10    1.55    1.48    0.75    0.02    0.02   65.51   53.57    0.00    8.77    0.00   56.74   45.60    0.00    0.00
 2014 232    58     0     1    47.2   42.2    5.0    1.15    3.50    7.38    6.99    3.03    1.62    1.54    0.77    0.02    0.02   66.70   54.32    0.00    8.92    0.00   57.78   47.38    0.00    0.00
 2014 233    59     0     1    45.9   40.3    5.6    1.42    3.14    6.14    7.57    2.94    1.65    1.59    1.01    0.02    0.02   68.37   55.00    0.00    9.11    0.00   59.26   50.15    0.00    0.00
 2014 234    60     0     1    45.9   39.8    6.1    0.94    2.07    5.00    7.63    4.61    1.65    1.63    1.22    0.03    0.02   70.37   56.08    0.00    9.33    0.00   61.03   51.97    0.00    0.00
 2014 235    61     0     1    46.6   39.9    6.7    1.10    2.06    4.53    7.01    5.72    1.73    1.73    1.42    0.03    0.02   72.04   56.88    0.00    9.51    0.00   62.53   52.71    0.00    0.00
 2014 236    62     0     1    46.8   39.7    7.1    1.40    2.22    4.34    6.39    6.21    1.74    1.76    1.56    0.04    0.02   73.93   58.04    0.00    9.70    0.00   64.23   54.26    0.00    0.00
 2014 237    63     0     1    46.8   39.5    7.3    1.85    2.50    4.39    5.91    6.25    1.72    1.75    1.66    0.05    0.03   75.93   59.44    0.01    9.91    0.00   66.03   55.98    0.00    0.00
 2014 238    64     0     1    46.4   39.2    7.3    1.19    2.24    4.38    5.76    6.63    1.65    1.70    1.68    0.05    0.04   77.83   60.93    0.01   10.11    0.00   67.73   58.07    0.00    0.00
 2014 239    65     0     1    44.7   37.0    7.7    1.32    2.21    4.15    5.26    6.29    1.75    1.79    1.80    0.06    0.04   79.52   61.99    0.01   10.28    0.00   69.24   58.07    3.24    0.00
 2014 240    66     0     1    46.4   38.4    7.9    1.79    2.52    4.45    5.23    6.36    1.77    1.83    1.86    0.06    0.05   81.48   63.52    0.01   10.49    0.00   70.99   58.07    3.32    0.00
 2014 241    67     0     1    48.1   40.2    7.9    2.42    2.94    4.83    5.21    6.34    1.73    1.80    1.87    0.06    0.05   83.41   65.28    0.01   10.69    0.00   72.72   58.07    3.32    0.00
 2014 242    68     0     1    49.7   42.0    7.7    2.86    3.34    5.25    5.22    6.35    1.64    1.75    1.85    0.06    0.05   85.23   67.09    0.01   10.89    0.00   74.34   58.07    3.32    0.00
 2014 243    69     0     1    51.2   43.8    7.4    2.01    3.93    5.97    5.24    6.36    1.51    1.68    1.79    0.06    0.05   86.93   68.87    0.01   11.09    0.00   75.84   58.07    3.32    0.00
 2014 244    70     0     1    52.4   45.0    7.5    1.23    3.05    6.05    6.04    6.88    1.61    1.70    1.77    0.06    0.05   88.84   70.52    0.01   11.32    0.00   77.53   58.07    3.78    0.00
 2014 245    71     0     1    52.9   45.1    7.7    1.53    3.05    5.85    6.04    7.04    1.69    1.76    1.83    0.06    0.06   90.62   71.80    0.01   11.53    0.00   79.10   58.07    4.92    0.00
 2014 246    72     0     1    53.4   45.5    7.8    1.80    3.26    5.92    5.96    7.02    1.70    1.78    1.86    0.07    0.06   92.49   73.35    0.01   11.74    0.00   80.74   58.07    6.07    0.00
 2014 247    73     0     1    53.7   45.8    7.8    2.24    3.57    6.12    5.80    6.78    1.72    1.77    1.86    0.07    0.06   94.42   75.06    0.01   11.97    0.00   82.45   58.07    7.45    0.00
 2014 248    74     0     1    53.6   46.0    7.6    1.42    2.72    5.95    6.44    7.21    1.67    1.71    1.81    0.07    0.06   96.31   76.93    0.01   12.20    0.00   84.12   58.07    9.21    0.00
 2014 249    75     0     1    52.3   44.4    7.9    1.17    2.56    5.48    6.28    7.29    1.73    1.77    1.87    0.07    0.06   97.91   78.08    0.01   12.38    0.00   85.52   58.07   11.88    0.00
 2014 250    76     0     1    49.3   41.2    8.1    1.50    2.59    5.12    5.68    6.60    1.78    1.81    1.90    0.07    0.06   99.59   79.42    0.01   12.58    0.00   87.01   58.07   16.42    0.00
 2014 251    77     0     1    49.8   41.9    8.0    2.04    2.94    5.36    5.53    6.43    1.74    1.79    1.88    0.07    0.06  101.48   81.19    0.01   12.79    0.00   88.69   58.07   17.52    0.00
 2014 252    78     0     1    50.4   42.7    7.7    1.39    2.65    5.46    5.91    6.71    1.67    1.73    1.83    0.07    0.06  103.29   83.04    0.01   13.00    0.00   90.29   58.07   18.57    0.00
 2014 253    79     0     1    49.6   41.8    7.8    1.11    2.31    5.09    5.96    6.93    1.72    1.77    1.85    0.07    0.06  104.89   84.32    0.01   13.18    0.00   91.70   58.07   20.76    0.00
 2014 254    80     0     1    46.2   38.2    8.0    1.30    2.30    4.65    5.32    6.25    1.77    1.81    1.89    0.07    0.06  106.37   85.46    0.01   13.35    0.00   93.02   58.07   25.49    0.00
 2014 255    81     0     1    46.9   39.0    7.9    1.38    2.50    4.81    5.33    6.30    1.74    1.79    1.87    0.07    0.07  108.10   87.09    0.01   13.54    0.00   94.57   58.07   26.30    0.00
 2014 256    82     0     1    46.8   38.9    7.9    1.07    2.30    4.77    5.44    6.44    1.77    1.79    1.85    0.07    0.07  109.76   88.56    0.01   13.72    0.00   96.03   58.07   27.85    0.00
 2014 257    83     0     1    46.5   38.5    8.0    1.18    2.29    4.64    5.34    6.42    1.78    1.80    1.86    0.07    0.06  111.35   89.93    0.08   13.90    0.00   97.44   58.07   29.57    0.00
 2014 258    84     0     1    46.0   38.0    8.0    1.21    2.32    4.59    5.21    6.33    1.81    1.82    1.86    0.07    0.06  112.91   91.27    0.15   14.08    0.00   98.84   58.07   31.36    0.00
 2014 259    85     0     1    38.6   30.7    7.9    0.83    1.44    3.20    4.33    5.84    1.81    1.80    1.84    0.07    0.06  114.61   92.86    0.21   14.26    0.00  100.34   58.07   40.18    0.00
 2014 260    86     0     1    37.1   29.1    8.1    1.04    1.58    3.10    3.96    5.37    1.82    1.82    1.88    0.07    0.07  116.11   94.06    0.33   14.41    0.00  101.70   58.07   42.87    0.00
 2014 261    87     0     1    36.4   28.3    8.1    1.03    1.76    3.18    3.75    5.03    1.81    1.80    1.89    0.08    0.07  117.68   95.48    0.41   14.57    0.00  103.11   58.07   44.99    0.00
 2014 262    88     0     1    36.1   28.0    8.1    1.32    1.91    3.30    3.59    4.75    1.83    1.81    1.89    0.08    0.07  119.18   96.81    0.47   14.72    0.00  104.46   58.07   46.50    0.00
 2014 263    89     0     1    36.6   28.7    7.9    1.74    2.25    3.54    3.50    4.54    1.76    1.77    1.87    0.08    0.07  120.79   98.41    0.50   14.89    0.00  105.91   58.07   47.42    0.00
 2014 264    90     0     1    37.5   29.7    7.8    2.03    2.58    3.85    3.49    4.43    1.74    1.73    1.83    0.08    0.07  122.39   99.98    0.52   15.05    0.00  107.33   58.07   47.91    0.00
 2014 265    91     0     1    38.8   31.2    7.6    2.56    2.93    4.21    3.48    4.37    1.72    1.68    1.78    0.08    0.07  124.02  101.62    0.53   15.23    0.00  108.78   58.07   48.06    0.00
 2014 266    92     0     1    40.3   33.0    7.3    2.87    3.40    4.64    3.51    4.35    1.62    1.61    1.71    0.07    0.07  125.69  103.43    0.53   15.42    0.00  110.27   58.07   48.06    0.00
 2014 267    93     0     1    41.8   34.8    7.0    3.46    3.74    5.06    3.52    4.33    1.61    1.56    1.64    0.07    0.06  127.41  105.18    0.53   15.62    0.00  111.79   58.07   48.06    0.00
 2014 268    94     0     1    43.3   36.6    6.7    4.55    4.12    5.36    3.50    4.30    1.51    1.47    1.57    0.07    0.06  129.09  107.00    0.53   15.83    0.00  113.27   58.07   48.06    0.00
 2014 269    95     0     1    44.7   38.4    6.3    5.02    4.49    5.77    3.52    4.32    1.38    1.39    1.50    0.07    0.06  130.71  108.78    0.53   16.03    0.00  114.68   58.07   48.06    0.00
 2014 270    96     0     1    46.0   40.1    6.0    2.02    4.30    6.59    4.38    4.57    1.25    1.32    1.42    0.06    0.06  132.25  110.48    0.53   16.23    0.00  116.02   58.07   48.06    0.00
 2014 271    97     0     1    47.0   40.9    6.1    2.21    4.08    6.49    4.69    4.83    1.33    1.38    1.44    0.07    0.06  133.75  111.60    0.53   16.43    0.00  117.32   58.07   48.37    0.00
 2014 272    98     0     1    48.1   42.0    6.2    3.10    4.26    6.51    4.71    4.89    1.34    1.38    1.45    0.07    0.06  135.37  112.98    0.53   16.64    0.00  118.73   58.07   48.66    0.00
 2014 273    99     0     1    45.9   39.9    6.0    1.72    2.58    5.25    5.58    5.87    1.29    1.35    1.42    0.07    0.06  137.00  114.53    0.53   16.86    0.00  120.14   58.07   52.27    0.00
 2014 274   100     0     1    44.5   38.2    6.3    1.87    2.61    4.89    5.26    5.69    1.35    1.40    1.47    0.07    0.06  138.39  115.51    0.53   17.03    0.00  121.36   58.07   54.91    0.00
 2014 275   101     0     1    43.8   37.4    6.4    2.01    2.77    4.82    5.01    5.48    1.39    1.42    1.50    0.07    0.06  139.85  116.69    0.55   17.20    0.00  122.65   58.07   56.86    0.00
 2014 276   102     0     1    44.0   37.6    6.4    2.42    3.05    4.96    4.84    5.28    1.41    1.41    1.49    0.07    0.06  141.45  118.12    0.57   17.39    0.00  124.06   58.07   58.07    0.00
 2014 277   103     0     1    44.9   38.7    6.3    3.14    3.43    5.23    4.73    5.13    1.38    1.39    1.46    0.07    0.06  143.15  119.72    0.57   17.60    0.00  125.56   58.07   58.62    0.00
 2014 278   104     0     1    46.2   40.2    6.0    3.27    3.92    5.62    4.76    5.06    1.32    1.34    1.41    0.07    0.06  144.77  121.36    0.58   17.80    0.00  126.97   58.07   58.72    0.00
 2014 279   105     0     1    47.6   41.7    5.9    3.34    4.23    6.00    4.84    5.09    1.34    1.32    1.37    0.06    0.06  146.37  122.85    0.58   18.01    0.00  128.36   58.07   58.72    0.00
 2014 280   106     0     1    49.0   43.2    5.8    4.01    4.48    6.29    4.91    5.06    1.35    1.30    1.33    0.06    0.06  148.00  124.37    0.58   18.23    0.00  129.77   58.07   58.72    0.00
 2014 281   107     0     1    50.4   44.8    5.6    4.99    4.82    6.55    4.88    5.04    1.29    1.25    1.29    0.06    0.06  149.63  125.97    0.58   18.45    0.00  131.17   58.07   58.72    0.00
 2014 282   108     0     1    51.8   46.4    5.4    5.42    5.14    6.90    4.89    5.05    1.20    1.20    1.25    0.06    0.06  151.17  127.53    0.58   18.67    0.00  132.50   58.07   58.72    0.00
 2014 283   109     0     1    53.0   47.9    5.1    5.85    5.46    7.24    4.91    5.07    1.09    1.14    1.20    0.06    0.06  152.66  129.07    0.58   18.89    0.00  133.77   58.07   58.72    0.00
 2014 284   110     0     1    54.3   49.4    4.8    6.27    5.78    7.59    4.92    5.08    0.97    1.08    1.14    0.06    0.05  154.11  130.59    0.58   19.11    0.00  135.00   58.07   58.72    0.00
 2014 285   111     0     1    55.4   50.8    4.6    6.64    6.07    7.91    4.94    5.10    0.86    1.03    1.10    0.06    0.05  155.48  131.99    0.58   19.33    0.00  136.15   58.07   58.72    0.00
 2014 286   112     0     1    56.5   52.1    4.4    6.98    6.32    8.20    4.95    5.11    0.77    0.99    1.06    0.06    0.05  156.75  133.26    0.58   19.53    0.00  137.22   58.07   58.72    0.00
 2014 287   113     0     1    57.5   53.3    4.2    7.29    6.57    8.48    4.97    5.12    0.75    0.95    1.03    0.05    0.05  158.02  134.47    0.58   19.74    0.00  138.28   58.07   58.72    0.00
 2014 288   114     0     1    58.5   54.5    4.1    7.61    6.80    8.75    4.98    5.13    0.70    0.92    0.99    0.05    0.05  159.22  135.64    0.58   19.94    0.00  139.28   58.07   58.72    0.00
 2014 289   115     0     1    59.5   55.6    3.9    7.91    7.03    9.01    4.99    5.15    0.65    0.88    0.95    0.05    0.05  160.36  136.77    0.58   20.13    0.00  140.23   58.07   58.72    0.00
 2014 290   116     0     1    60.4   56.7    3.7    8.20    7.25    9.27    5.00    5.16    0.60    0.83    0.91    0.05    0.05  161.46  137.87    0.58   20.32    0.00  141.14   58.07   58.72    0.00
 2014 291   117     0     1    61.3   57.8    3.5    8.46    7.46    9.53    5.02    5.17    0.56    0.79    0.86    0.05    0.05  162.54  138.95    0.58   20.51    0.00  142.03   58.07   58.72    0.00
 2014 292   118     0     1    62.1   58.8    3.3    8.70    7.67    9.77    5.03    5.18    0.52    0.74    0.81    0.05    0.04  163.57  139.98    0.58   20.70    0.00  142.87   58.07   58.72    0.00
 2014 293   119     0     1    62.9   59.8    3.1    8.92    7.86   10.00    5.04    5.19    0.49    0.71    0.77    0.05    0.04  164.54  140.94    0.58   20.88    0.00  143.66   58.07   58.72    0.00
 2014 294   120     0     1    63.6   60.7    3.0    9.14    8.04   10.22    5.05    5.21    0.47    0.67    0.73    0.04    0.04  165.46  141.84    0.58   21.05    0.00  144.41   58.07   58.72    0.00
 2014 295   121     0     1    64.3   61.5    2.8    9.34    8.21   10.43    5.06    5.22    0.44    0.63    0.69    0.04    0.04  166.34  142.71    0.58   21.22    0.00  145.12   58.07   58.72    0.00
 2014 296   122     0     1    65.0   62.4    2.7    9.55    8.37   10.63    5.08    5.23    0.42    0.59    0.65    0.04    0.04  167.17  143.56    0.58   21.38    0.00  145.79   58.07   58.72    0.00
 2014 297   123     0     1    65.7   63.2    2.5    9.74    8.53   10.83    5.09    5.24    0.39    0.55    0.60    0.04    0.04  167.97  144.38    0.58   21.54    0.00  146.44   58.07   58.72    0.00
 2014 298   124     0     1    66.3   64.0    2.3    9.94    8.68   11.02    5.10    5.25    0.37    0.50    0.56    0.04    0.04  168.74  145.19    0.58   21.69    0.00  147.05   58.07   58.72    0.00
 2014 299   125     0     1    66.9   64.8    2.1   10.14    8.83   11.21    5.11    5.26    0.35    0.46    0.51    0.04    0.03  169.48  145.97    0.58   21.83    0.00  147.64   58.07   58.72    0.00
 2014 300   126     0     1    67.4   65.5    1.9   10.33    8.95   11.38    5.12    5.27    0.32    0.42    0.47    0.03    0.03  170.16  146.68    0.58   21.97    0.00  148.19   58.07   58.72    0.00
 2014 301   127     0     1    67.9   66.1    1.8   10.51    9.06   11.53    5.13    5.28    0.30    0.39    0.43    0.03    0.03  170.79  147.32    0.58   22.10    0.00  148.69   58.07   58.72    0.00
 2014 302   128     0     1    68.4   66.7    1.7   10.69    9.15   11.66    5.14    5.29    0.28    0.37    0.40    0.03    0.03  171.36  147.89    0.58   22.22    0.00  149.14   58.07   58.72    0.00
 2014 303   129     0     1    68.8   67.2    1.6   10.87    9.23   11.77    5.15    5.30    0.26    0.35    0.38    0.03    0.03  171.88  148.39    0.58   22.33    0.00  149.55   58.07   58.72    0.00
 2014 304   130     0     1    69.1   67.6    1.5   11.04    9.29   11.87    5.16    5.31    0.24    0.33    0.36    0.03    0.03  172.34  148.84    0.58   22.42    0.00  149.92   58.07   58.72    0.00
 2014 305   131     0     1    69.5   68.0    1.4   11.21    9.34   11.95    5.17    5.32    0.23    0.31    0.34    0.03    0.03  172.75  149.25    0.58   22.51    0.00  150.25   58.07   58.72    0.00
 2014 306   132     0     1    69.7   68.4    1.3   11.38    9.39   12.02    5.17    5.32    0.22    0.29    0.32    0.03    0.02  173.12  149.62    0.58   22.58    0.00  150.53   58.07   58.72    0.00
 2014 307   133     0     1    70.0   68.7    1.3   11.54    9.42   12.09    5.18    5.33    0.21    0.28    0.30    0.02    0.02  173.45  149.95    0.58   22.65    0.00  150.80   58.07   58.72    0.00
 2014 308   134     0     1    70.2   69.0    1.2   11.70    9.46   12.15    5.19    5.34    0.21    0.26    0.28    0.02    0.02  173.75  150.26    0.58   22.71    0.00  151.04   58.07   58.72    0.00
 2014 309   135     0     1    70.5   69.3    1.1   11.86    9.49   12.20    5.20    5.34    0.20    0.25    0.27    0.02    0.02  174.03  150.54    0.58   22.77    0.00  151.26   58.07   58.72    0.00
 2014 310   136     0     1    70.7   69.6    1.1   12.01    9.51   12.24    5.20    5.35    0.20    0.24    0.26    0.02    0.02  174.29  150.79    0.58   22.83    0.00  151.47   58.07   58.72    0.00
 2014 311   137     0     1    70.9   69.8    1.1   12.20    9.52   12.28    5.20    5.35    0.26    0.23    0.25    0.02    0.02  174.63  151.05    0.58   22.89    0.00  151.74   58.07   58.72    0.00
 2014 312   138     0     1    71.2   70.1    1.1   12.41    9.53   12.31    5.21    5.36    0.30    0.23    0.24    0.02    0.02  174.93  151.29    0.58   22.95    0.00  151.98   58.07   58.72    0.00
 2014 313   139     0     1    71.4   70.3    1.1   12.61    9.54   12.34    5.21    5.36    0.31    0.22    0.23    0.02    0.02  175.19  151.52    0.58   23.00    0.00  152.19   58.07   58.72    0.00
 2014 314   140     0     1    71.6   70.5    1.1   12.80    9.54   12.37    5.21    5.36    0.32    0.21    0.23    0.02    0.02  175.43  151.73    0.58   23.05    0.00  152.38   58.07   58.72    0.00
 2014 315   141     0     1    71.8   70.7    1.0   12.99    9.55   12.40    5.22    5.36    0.32    0.21    0.22    0.02    0.02  175.65  151.93    0.58   23.09    0.00  152.56   58.07   58.72    0.00
 2014 316   142     0     1    71.9   70.9    1.0   13.18    9.55   12.42    5.22    5.37    0.31    0.20    0.21    0.02    0.02  175.84  152.13    0.58   23.13    0.00  152.71   58.07   58.72    0.00
 2014 317   143     0     1    72.0   71.1    1.0   13.35    9.55   12.44    5.22    5.37    0.30    0.19    0.20    0.02    0.01  176.01  152.31    0.58   23.17    0.00  152.85   58.07   58.72    0.00
 2014 318   144     0     1    72.2   71.2    0.9   13.52    9.55   12.46    5.22    5.37    0.29    0.18    0.19    0.01    0.01  176.16  152.47    0.58   23.20    0.00  152.96   58.07   58.72    0.00
 2014 319   145     0     1    72.3   71.4    0.9   13.69    9.54   12.48    5.22    5.37    0.28    0.17    0.18    0.01    0.01  176.30  152.62    0.58   23.23    0.00  153.07   58.07   58.72    0.00
 2014 320   146     0     1    72.4   71.5    0.8   13.85    9.54   12.50    5.22    5.37    0.26    0.16    0.17    0.01    0.01  176.42  152.76    0.58   23.25    0.00  153.16   58.07   58.72    0.00
 2014 321   147     0     1    72.4   71.7    0.8   14.00    9.53   12.51    5.22    5.37    0.25    0.15    0.16    0.01    0.01  176.52  152.89    0.58   23.28    0.00  153.25   58.07   58.72    0.00
 2014 322   148     0     1    72.5   71.8    0.7   14.15    9.52   12.52    5.22    5.37    0.23    0.14    0.16    0.01    0.01  176.62  153.01    0.58   23.30    0.00  153.32   58.07   58.72    0.00
 2014 323   149     0     1    72.6   71.9    0.7   14.30    9.51   12.53    5.22    5.38    0.22    0.13    0.15    0.01    0.01  176.71  153.12    0.58   23.32    0.00  153.40   58.07   58.72    0.00
 2014 324   150     0     1    72.7   72.0    0.7   14.44    9.49   12.54    5.22    5.38    0.21    0.13    0.14    0.01    0.01  176.79  153.22    0.58   23.33    0.00  153.46   58.07   58.72    0.00
 2014 325   151     0     1    72.7   72.1    0.6   14.58    9.48   12.55    5.22    5.38    0.20    0.12    0.13    0.01    0.01  176.87  153.31    0.58   23.35    0.00  153.52   58.07   58.72    0.00
 2014 326   152     0     1    72.8   72.2    0.6   14.72    9.46   12.55    5.22    5.38    0.20    0.11    0.13    0.01    0.01  176.94  153.40    0.58   23.36    0.00  153.58   58.07   58.72    0.00
 2014 327   153     0     1    72.8   72.2    0.6   14.86    9.44   12.56    5.22    5.38    0.20    0.10    0.12    0.01    0.01  177.01  153.48    0.58   23.38    0.00  153.63   58.07   58.72    0.00
 2014 328   154     0     1    72.9   72.3    0.5   14.99    9.43   12.56    5.22    5.38    0.19    0.10    0.11    0.01    0.01  177.07  153.55    0.58   23.39    0.00  153.68   58.07   58.72    0.00
 2014 329   155     0     1    72.9   72.4    0.5   15.12    9.41   12.56    5.22    5.38    0.19    0.09    0.11    0.01    0.01  177.13  153.62    0.58   23.40    0.00  153.72   58.07   58.72    0.00
 2014 330   156     0     1    73.0   72.5    0.5   15.25    9.39   12.56    5.22    5.38    0.19    0.09    0.10    0.01    0.01  177.18  153.68    0.58   23.41    0.00  153.77   58.07   58.72    0.00
