*SOM N DAILY OUTPUT FILE

*DSSAT Cropping System Model Ver. 4.7.2.000 -release      OCT 15, 2021; 17:59:33
                                                                                
*RUN   1        :             CSM335_date_1 MZCER047 ITSA1301    1              
 MODEL          : MZCER047 - Maize                                              
 EXPERIMENT     : ITSA1301 SG CALIBRATION SETUP OF SORGHUM SOWING DATES         
 DATA PATH      :                                                               
 TREATMENT  1   :             CSM335_date_1 MZCER047                            
  
!                                                                                                                                                                                                                                                                                                                                                                                                                                                Cumul.
!               <---- SOM N in top layers ----> <---------------- Total Soil Organic Nitrogen ----------------> <-------- Active Soil Organic Nitrogen (SOM1) --------> <---- Intermediate Soil Organic N (SOM2) -----> <------- Passive Soil Organic N (SOM3) -------> <----------------- Litter Nitrogen -------------------> <------------- Metabolic Litter Nitrogen -------------> <------------ Structural Litter Nitrogen ------------->  Res. N
!               20cm-kg  20cm-% 40cm-kg  40cm-%   Total Surface    Soil     0-5    5-15   15-30   30-45   45-60 Surface    Soil     0-5    5-15   15-30   30-45   45-60    Soil     0-5    5-15   15-30   30-45   45-60    Soil     0-5    5-15   15-30   30-45   45-60 Surface    Soil     0-5    5-15   15-30   30-45   45-60 Surface    Soil     0-5    5-15   15-30   30-45   45-60 Surface    Soil     0-5    5-15   15-30   30-45   45-60 (kg/ha)
@YEAR DOY   DAS  SNS20D  SN%20D  SNS40D  SN%40D    SOND    SN0D    SNTD    SN1D    SN2D    SN3D    SN4D   SN5+D   S1N0D   S1NTD   S1N1D   S1N2D   S1N3D   S1N4D  S1N5+D   S2NTD   S2N1D   S2N2D   S2N3D   S2N4D  S2N5+D   S3NTD   S3N1D   S3N2D   S3N3D   S3N4D  S3N5+D    LN0D    LNTD    LN1D    LN2D    LN3D    LN4D   LN5+D   MEN0D   MENTD   MEN1D   MEN2D   MEN3D   MEN4D  MEN5+D   STN0D   STNTD   STN1D   STN2D   STN3D   STN4D  STN5+D   RESNC
 2014 174     0    2225   0.079    1902   0.068    5706       0    5706     556    1114    1674    1180    1182       0     126      21      41      62       1       1    1407     231     462     695       9       9    4169     304     609     915    1170    1171    0.00    4.51    1.06    1.46    1.17    0.55    0.26    0.00    4.11    0.97    1.33    1.07    0.50    0.24    0.00    0.39    0.09    0.13    0.10    0.05    0.02       0
 2014 175     1    2225   0.079    1902   0.068    5706       0    5706     556    1114    1674    1180    1182       0     125      21      41      62       1       1    1407     231     462     695       9       9    4169     304     609     915    1170    1171    0.00    4.43    1.04    1.44    1.15    0.54    0.26    0.00    4.04    0.95    1.31    1.05    0.50    0.23    0.00    0.39    0.09    0.13    0.10    0.05    0.02       0
 2014 176     2    2224   0.079    1901   0.068    5705       0    5705     556    1114    1673    1180    1182       0     125      20      41      62       1       1    1407     231     462     695       9       9    4169     304     609     915    1170    1171    0.00    4.36    1.02    1.41    1.13    0.54    0.25    0.00    3.97    0.93    1.29    1.03    0.49    0.23    0.00    0.39    0.09    0.13    0.10    0.05    0.02       0
 2014 177     3    2224   0.079    1901   0.068    5704       0    5704     556    1113    1673    1180    1182       0     124      20      41      61       1       1    1406     231     462     695       9       9    4169     304     609     915    1170    1171    0.00    4.29    1.01    1.39    1.12    0.53    0.25    0.00    3.90    0.91    1.26    1.01    0.48    0.23    0.00    0.39    0.09    0.13    0.10    0.05    0.02       0
 2014 178     4    2224   0.079    1901   0.068    5704       0    5704     556    1113    1673    1180    1182       0     124      20      41      61       1       1    1406     231     462     695       9       9    4169     304     609     915    1170    1171    0.00    4.22    0.99    1.37    1.10    0.52    0.25    0.00    3.83    0.90    1.24    1.00    0.47    0.22    0.00    0.39    0.09    0.13    0.10    0.05    0.02       0
 2014 179     5    2223   0.079    1901   0.068    5703       0    5703     555    1113    1672    1180    1182       0     123      20      41      61       1       1    1406     230     462     695       9       9    4169     304     609     915    1170    1171    0.00    4.13    0.95    1.35    1.08    0.51    0.24    0.00    3.74    0.86    1.22    0.98    0.46    0.22    0.00    0.39    0.09    0.13    0.10    0.05    0.02       0
 2014 180     6    2222   0.079    1900   0.068    5702       0    5702     555    1113    1672    1180    1182       0     123      20      40      61       1       1    1406     230     462     695       9       9    4169     304     609     915    1170    1171    0.00    4.04    0.92    1.32    1.06    0.50    0.24    0.00    3.65    0.83    1.20    0.96    0.45    0.21    0.00    0.39    0.09    0.13    0.10    0.05    0.02       0
 2014 181     7    2222   0.079    1900   0.068    5701       0    5701     555    1112    1672    1180    1182       0     122      20      40      60       1       1    1406     230     462     695       9       9    4169     304     609     915    1170    1171    0.00    3.95    0.88    1.30    1.04    0.49    0.23    0.00    3.56    0.79    1.17    0.94    0.44    0.21    0.00    0.39    0.09    0.13    0.10    0.05    0.02       0
 2014 182     8    2221   0.079    1900   0.068    5700       0    5700     555    1112    1671    1180    1182       0     122      20      40      60       1       1    1406     230     462     695       9       9    4169     304     609     915    1170    1171    0.00    3.86    0.86    1.28    1.02    0.48    0.23    0.00    3.47    0.76    1.15    0.92    0.44    0.21    0.00    0.39    0.09    0.13    0.10    0.05    0.02       0
 2014 183     9    2221   0.079    1900   0.068    5699       0    5699     554    1112    1671    1180    1182       0     121      19      40      60       1       1    1406     230     462     695       9       9    4169     304     609     915    1170    1171    0.00    3.77    0.81    1.25    1.00    0.47    0.22    0.00    3.38    0.72    1.13    0.90    0.43    0.20    0.00    0.39    0.09    0.13    0.10    0.05    0.02       0
 2014 184    10    2220   0.079    1900   0.068    5698       0    5698     554    1112    1671    1180    1182       0     120      19      40      60       1       1    1405     230     462     695       9       9    4169     304     609     915    1170    1171    0.00    3.68    0.78    1.23    0.98    0.47    0.22    0.00    3.29    0.69    1.11    0.88    0.42    0.20    0.00    0.39    0.09    0.13    0.10    0.05    0.02       0
 2014 185    11    2220   0.079    1899   0.068    5698       0    5698     554    1112    1670    1180    1182       0     120      19      40      59       1       1    1405     230     462     694       9       9    4169     304     609     915    1170    1171    0.00    3.60    0.75    1.21    0.97    0.46    0.22    0.00    3.22    0.66    1.09    0.87    0.41    0.19    0.00    0.39    0.09    0.13    0.10    0.05    0.02       0
 2014 186    12    2219   0.079    1899   0.068    5696       0    5696     553    1111    1670    1180    1182       0     119      19      39      59       1       1    1405     230     462     694       9       9    4169     304     609     915    1170    1171    0.00    3.49    0.70    1.18    0.95    0.45    0.21    0.00    3.11    0.61    1.06    0.85    0.40    0.19    0.00    0.39    0.09    0.13    0.10    0.05    0.02       0
 2014 187    13    2218   0.079    1899   0.068    5695       0    5695     553    1111    1670    1180    1182       0     118      19      39      59       1       1    1405     230     462     694       9       9    4169     304     609     915    1170    1171    0.00    3.40    0.66    1.15    0.93    0.44    0.21    0.00    3.01    0.57    1.03    0.83    0.39    0.19    0.00    0.38    0.09    0.12    0.10    0.05    0.02       0
 2014 188    14    2218   0.079    1899   0.068    5694       0    5694     553    1111    1669    1180    1182       0     117      18      39      59       1       1    1405     230     462     694       9       9    4169     304     609     915    1170    1171    0.00    3.31    0.63    1.12    0.92    0.43    0.21    0.00    2.93    0.54    1.00    0.82    0.39    0.18    0.00    0.38    0.09    0.12    0.10    0.05    0.02       0
 2014 189    15    2217   0.079    1899   0.068    5694       0    5694     552    1110    1669    1180    1182       0     117      18      39      58       1       1    1405     230     462     694       9       9    4169     304     609     915    1170    1171    0.00    3.23    0.60    1.10    0.90    0.43    0.20    0.00    2.85    0.51    0.97    0.80    0.38    0.18    0.00    0.38    0.09    0.12    0.10    0.05    0.02       0
 2014 190    16    2216   0.079    1898   0.068    5693       0    5693     552    1110    1669    1180    1182       0     116      18      38      58       1       1    1404     230     462     694       9       9    4169     304     609     915    1170    1171    0.00    3.16    0.58    1.07    0.89    0.42    0.20    0.00    2.78    0.49    0.95    0.79    0.37    0.18    0.00    0.38    0.09    0.12    0.10    0.05    0.02       0
 2014 191    17    2216   0.079    1898   0.068    5692       0    5692     552    1110    1668    1180    1182       0     116      18      38      58       1       1    1404     230     462     694       9       9    4169     304     609     915    1170    1171    0.00    3.10    0.56    1.05    0.88    0.41    0.20    0.00    2.71    0.47    0.93    0.78    0.37    0.17    0.00    0.38    0.09    0.12    0.10    0.05    0.02       0
 2014 192    18    2215   0.079    1898   0.068    5691       0    5691     552    1109    1668    1180    1182       0     115      18      38      58       1       1    1404     230     462     694       9       9    4169     304     609     915    1170    1171    0.00    3.03    0.54    1.03    0.86    0.41    0.19    0.00    2.65    0.45    0.90    0.76    0.36    0.17    0.00    0.38    0.09    0.12    0.10    0.05    0.02       0
 2014 193    19    2215   0.079    1898   0.068    5691       0    5691     552    1109    1668    1180    1182       0     115      18      38      57       1       1    1404     230     462     694       9       9    4169     304     609     915    1170    1171    0.00    2.97    0.53    1.01    0.85    0.40    0.19    0.00    2.59    0.44    0.88    0.75    0.35    0.17    0.00    0.38    0.09    0.12    0.10    0.05    0.02       0
 2014 194    20    2214   0.079    1898   0.068    5690       0    5690     551    1109    1667    1180    1182       0     114      17      38      57       1       1    1404     230     461     694       9       9    4169     304     609     915    1170    1171    0.00    2.91    0.51    0.98    0.84    0.39    0.19    0.00    2.53    0.42    0.86    0.74    0.35    0.16    0.00    0.38    0.09    0.12    0.10    0.05    0.02       0
 2014 195    21    2214   0.079    1897   0.068    5689       0    5689     551    1109    1667    1180    1182       0     114      17      37      57       1       1    1404     230     461     694       9       9    4169     304     609     915    1170    1171    0.00    2.86    0.50    0.96    0.82    0.39    0.18    0.00    2.48    0.41    0.84    0.72    0.34    0.16    0.00    0.38    0.09    0.12    0.10    0.05    0.02       0
 2014 196    22    2213   0.079    1897   0.068    5688       0    5688     551    1108    1667    1180    1182       0     113      17      37      57       1       1    1404     230     461     694       9       9    4169     304     609     915    1170    1171    0.00    2.80    0.49    0.94    0.81    0.38    0.18    0.00    2.42    0.40    0.82    0.71    0.33    0.16    0.00    0.38    0.09    0.12    0.10    0.05    0.02       0
 2014 197    23    2213   0.079    1897   0.068    5688       0    5688     551    1108    1667    1180    1182       0     112      17      37      56       1       1    1404     230     461     694       9       9    4169     304     609     915    1170    1171    0.00    2.75    0.48    0.92    0.80    0.38    0.18    0.00    2.37    0.39    0.80    0.70    0.33    0.16    0.00    0.38    0.09    0.12    0.10    0.05    0.02       0
 2014 198    24    2213   0.079    1897   0.068    5687       0    5687     551    1108    1666    1180    1182       0     112      17      37      56       1       1    1403     230     461     694       9       9    4169     304     609     915    1170    1171    0.00    2.70    0.47    0.90    0.78    0.37    0.17    0.00    2.33    0.39    0.78    0.69    0.32    0.15    0.00    0.38    0.09    0.12    0.10    0.05    0.02       0
 2014 199    25    2212   0.079    1897   0.068    5686       0    5686     551    1108    1666    1180    1182       0     112      17      37      56       1       1    1403     230     461     694       9       9    4169     304     609     915    1169    1171    0.00    2.66    0.47    0.89    0.77    0.36    0.17    0.00    2.28    0.38    0.76    0.67    0.32    0.15    0.00    0.38    0.09    0.12    0.10    0.05    0.02       0
 2014 200    26    2212   0.079    1897   0.068    5685       0    5685     551    1107    1666    1180    1182       0     111      17      36      56       1       1    1403     230     461     694       9       9    4169     304     609     915    1169    1171    0.00    2.59    0.44    0.86    0.76    0.36    0.17    0.00    2.21    0.35    0.74    0.66    0.31    0.15    0.00    0.38    0.09    0.12    0.10    0.05    0.02       0
 2014 201    27    2211   0.079    1896   0.068    5685       0    5685     550    1107    1665    1180    1182       0     110      16      36      56       1       1    1403     230     461     694       9       9    4169     304     609     915    1169    1171    0.00    2.53    0.42    0.84    0.75    0.35    0.17    0.00    2.15    0.33    0.72    0.65    0.30    0.14    0.00    0.38    0.09    0.12    0.10    0.05    0.02       0
 2014 202    28    2210   0.079    1896   0.068    5684       0    5684     550    1107    1665    1180    1182       0     110      16      36      55       1       1    1403     229     461     694       9       9    4169     304     609     915    1169    1171    0.00    2.47    0.40    0.82    0.74    0.35    0.16    0.00    2.10    0.31    0.70    0.64    0.30    0.14    0.00    0.38    0.09    0.12    0.10    0.05    0.02       0
 2014 203    29    2210   0.079    1896   0.068    5683       0    5683     550    1106    1665    1180    1182       0     109      16      36      55       1       1    1403     229     461     694       9       9    4169     304     609     915    1169    1171    0.00    2.42    0.38    0.81    0.73    0.34    0.16    0.00    2.05    0.30    0.68    0.63    0.29    0.14    0.00    0.38    0.09    0.12    0.10    0.05    0.02       0
 2014 204    30    2209   0.079    1896   0.068    5682       0    5682     549    1106    1665    1180    1182       0     108      16      35      55       1       1    1402     229     461     693       9       9    4169     304     609     915    1169    1171    0.00    2.34    0.37    0.76    0.72    0.34    0.16    0.00    1.96    0.28    0.64    0.62    0.29    0.14    0.00    0.37    0.09    0.12    0.10    0.05    0.02       0
 2014 205    31    2208   0.079    1895   0.068    5680       0    5680     549    1105    1664    1180    1182       0     107      16      35      55       1       1    1402     229     461     693       9       9    4169     304     609     915    1169    1171    0.00    2.25    0.35    0.72    0.70    0.33    0.16    0.00    1.88    0.26    0.60    0.60    0.29    0.13    0.00    0.37    0.09    0.12    0.10    0.05    0.02       0
 2014 206    32    2206   0.079    1895   0.068    5679       0    5679     549    1104    1664    1180    1182       0     106      15      34      54       1       1    1402     229     461     693       9       9    4169     304     609     915    1169    1171    0.00    2.17    0.33    0.68    0.68    0.33    0.15    0.00    1.80    0.25    0.56    0.58    0.28    0.13    0.00    0.37    0.09    0.12    0.10    0.05    0.02       0
 2014 207    33    2206   0.079    1895   0.068    5677       0    5677     548    1104    1663    1180    1182       0     105      15      34      54       1       1    1401     229     460     693       9       9    4169     304     609     915    1169    1171    0.00    2.10    0.32    0.64    0.66    0.32    0.15    0.00    1.73    0.24    0.52    0.57    0.28    0.13    0.00    0.37    0.08    0.12    0.10    0.05    0.02       0
 2014 208    34    2205   0.079    1895   0.068    5676       0    5676     548    1103    1663    1180    1182       0     104      15      33      54       1       1    1401     229     460     693       9       9    4169     304     609     915    1169    1171    0.00    2.04    0.31    0.61    0.65    0.32    0.15    0.00    1.67    0.22    0.49    0.55    0.27    0.13    0.00    0.37    0.08    0.12    0.10    0.05    0.02       0
 2014 209    35    2204   0.079    1894   0.068    5675       0    5675     548    1103    1662    1180    1182       0     103      15      33      53       1       1    1401     229     460     693       9       9    4169     304     609     915    1169    1171    0.00    1.98    0.30    0.58    0.64    0.32    0.15    0.00    1.61    0.21    0.46    0.54    0.27    0.13    0.00    0.37    0.08    0.12    0.10    0.05    0.02       0
 2014 210    36    2203   0.079    1894   0.068    5674       0    5674     548    1102    1662    1180    1182       0     102      15      33      53       1       1    1401     229     460     693       9       9    4169     304     609     915    1169    1171    0.00    1.92    0.29    0.55    0.62    0.31    0.15    0.00    1.55    0.20    0.44    0.52    0.27    0.12    0.00    0.37    0.08    0.12    0.10    0.05    0.02       0
 2014 211    37    2202   0.079    1894   0.068    5673       0    5673     548    1101    1662    1180    1182       0     102      15      32      53       1       1    1400     229     460     693       9       9    4169     304     609     915    1169    1171    0.00    1.87    0.28    0.53    0.61    0.31    0.14    0.00    1.50    0.20    0.41    0.51    0.26    0.12    0.00    0.37    0.08    0.12    0.10    0.05    0.02       0
 2014 212    38    2201   0.079    1894   0.068    5671       0    5671     547    1101    1661    1180    1182       0     101      14      32      52       1       1    1400     229     460     693       9       9    4169     304     609     915    1169    1171    0.00    1.81    0.27    0.50    0.60    0.30    0.14    0.00    1.45    0.18    0.39    0.50    0.26    0.12    0.00    0.37    0.08    0.12    0.10    0.05    0.02       0
 2014 213    39    2200   0.079    1893   0.068    5670       0    5670     547    1100    1661    1180    1182       0     100      14      31      52       1       1    1400     229     460     693       9       9    4169     304     609     915    1169    1171    0.00    1.76    0.25    0.48    0.59    0.30    0.14    0.00    1.39    0.17    0.36    0.49    0.25    0.12    0.00    0.37    0.08    0.12    0.10    0.05    0.02       0
 2014 214    40    2199   0.079    1893   0.068    5669       0    5669     547    1100    1661    1180    1182       0      99      14      31      52       1       1    1399     229     459     693       9       9    4169     304     609     915    1169    1171    0.00    1.71    0.24    0.46    0.58    0.30    0.14    0.00    1.35    0.16    0.34    0.48    0.25    0.12    0.00    0.37    0.08    0.12    0.10    0.05    0.02       0
 2014 215    41    2198   0.079    1893   0.068    5667       0    5667     546    1099    1660    1180    1182       0      98      14      30      52       1       1    1399     229     459     693       9       9    4169     304     609     915    1169    1171    0.00    1.66    0.23    0.44    0.56    0.29    0.14    0.00    1.30    0.15    0.32    0.46    0.25    0.12    0.00    0.36    0.08    0.12    0.10    0.05    0.02       0
 2014 216    42    2197   0.078    1893   0.068    5666       0    5666     546    1098    1660    1180    1182       0      97      14      30      51       1       1    1399     228     459     692       9       9    4169     304     609     915    1169    1171    0.00    1.61    0.22    0.41    0.54    0.29    0.14    0.00    1.24    0.14    0.30    0.44    0.25    0.11    0.00    0.36    0.08    0.12    0.10    0.05    0.02       0
 2014 217    43    2196   0.078    1892   0.068    5664       0    5664     546    1098    1659    1180    1182       0      96      13      30      51       1       1    1398     228     459     692       9       9    4169     304     609     915    1169    1171    0.00    1.56    0.22    0.40    0.52    0.29    0.14    0.00    1.19    0.13    0.28    0.43    0.24    0.11    0.00    0.36    0.08    0.12    0.10    0.05    0.02       0
 2014 218    44    2195   0.078    1892   0.068    5663       0    5663     546    1097    1658    1180    1182       0      95      13      29      50       1       1    1398     228     459     692       9       9    4169     304     609     915    1169    1171    0.00    1.52    0.21    0.38    0.51    0.29    0.13    0.00    1.15    0.13    0.26    0.41    0.24    0.11    0.00    0.36    0.08    0.12    0.10    0.05    0.02       0
 2014 219    45    2194   0.078    1891   0.068    5662       0    5662     545    1097    1658    1180    1182       0      94      13      29      50       1       1    1398     228     459     692       9       9    4169     304     609     915    1169    1171    0.00    1.48    0.20    0.36    0.49    0.28    0.13    0.00    1.12    0.12    0.25    0.40    0.24    0.11    0.00    0.36    0.08    0.12    0.10    0.05    0.02       0
 2014 220    46    2193   0.078    1891   0.068    5661       0    5661     545    1096    1657    1180    1182       0      93      13      29      50       1       1    1397     228     459     692       9       9    4169     304     609     915    1169    1171    0.00    1.45    0.20    0.35    0.48    0.28    0.13    0.00    1.09    0.12    0.24    0.39    0.24    0.11    0.00    0.36    0.08    0.11    0.10    0.05    0.02       0
 2014 221    47    2193   0.078    1891   0.068    5660       0    5660     545    1096    1657    1180    1182       0      92      13      28      49       1       1    1397     228     458     692       9       9    4169     304     609     915    1169    1171    0.00    1.42    0.20    0.34    0.47    0.28    0.13    0.00    1.06    0.11    0.23    0.37    0.23    0.11    0.00    0.36    0.08    0.11    0.10    0.05    0.02       0
 2014 222    48    2192   0.078    1891   0.068    5658       0    5658     545    1095    1657    1180    1182       0      92      13      28      49       1       1    1397     228     458     692       9       9    4169     304     609     915    1169    1171    0.00    1.38    0.19    0.33    0.46    0.28    0.13    0.00    1.02    0.11    0.21    0.36    0.23    0.11    0.00    0.36    0.08    0.11    0.10    0.05    0.02       0
 2014 223    49    2191   0.078    1890   0.068    5657       0    5657     545    1095    1656    1180    1182       0      91      13      28      49       1       1    1396     228     458     692       9       9    4169     304     609     915    1169    1171    0.00    1.35    0.18    0.32    0.45    0.28    0.13    0.00    1.00    0.10    0.20    0.35    0.23    0.11    0.00    0.36    0.08    0.11    0.10    0.05    0.02       0
 2014 224    50    2190   0.078    1890   0.068    5656       0    5656     544    1094    1656    1180    1182       0      90      13      27      48       1       1    1396     228     458     691       9       9    4169     304     609     915    1169    1171    0.00    1.33    0.18    0.31    0.44    0.27    0.13    0.00    0.97    0.10    0.19    0.35    0.23    0.11    0.00    0.36    0.08    0.11    0.10    0.05    0.02       0
 2014 225    51    2189   0.078    1890   0.067    5655       0    5655     544    1094    1655    1180    1182       0      89      12      27      48       1       1    1396     228     458     691       9       9    4169     304     609     915    1169    1171    0.00    1.31    0.17    0.30    0.44    0.27    0.13    0.00    0.95    0.09    0.18    0.34    0.23    0.11    0.00    0.36    0.08    0.11    0.10    0.05    0.02       0
 2014 226    52    2189   0.078    1890   0.067    5654       0    5654     544    1094    1655    1180    1182       0      89      12      27      48       1       1    1395     228     458     691       9       9    4169     304     609     915    1169    1171    0.00    1.29    0.17    0.29    0.43    0.27    0.13    0.00    0.93    0.09    0.18    0.33    0.22    0.11    0.00    0.36    0.08    0.11    0.10    0.05    0.02       0
 2014 227    53    2188   0.078    1889   0.067    5653       0    5653     544    1093    1655    1180    1182       0      88      12      27      48       1       1    1395     228     458     691       9       9    4169     304     609     915    1169    1171    0.00    1.27    0.16    0.28    0.43    0.27    0.13    0.00    0.91    0.08    0.17    0.33    0.22    0.10    0.00    0.36    0.08    0.11    0.10    0.05    0.02       0
 2014 228    54    2187   0.078    1889   0.067    5653       0    5653     543    1093    1655    1180    1182       0      88      12      26      48       1       1    1395     228     457     691       9       9    4169     304     609     915    1169    1171    0.00    1.25    0.16    0.28    0.42    0.27    0.13    0.00    0.90    0.08    0.16    0.33    0.22    0.10    0.00    0.36    0.08    0.11    0.10    0.05    0.02       0
 2014 229    55    2187   0.078    1889   0.067    5652       0    5652     543    1092    1654    1180    1182       0      87      12      26      47       1       1    1395     227     457     691       9       9    4169     304     609     915    1169    1171    0.00    1.24    0.16    0.27    0.42    0.27    0.13    0.00    0.88    0.08    0.16    0.32    0.22    0.10    0.00    0.36    0.08    0.11    0.10    0.05    0.02       0
 2014 230    56    2186   0.078    1889   0.067    5651       0    5651     543    1092    1654    1180    1182       0      87      12      26      47       1       1    1394     227     457     691       9       9    4169     304     609     915    1169    1171    0.00    1.22    0.15    0.26    0.41    0.26    0.13    0.00    0.86    0.07    0.15    0.32    0.22    0.10    0.00    0.36    0.08    0.11    0.10    0.05    0.02       0
 2014 231    57    2185   0.078    1889   0.067    5650       0    5650     543    1091    1654    1180    1181       0      86      12      25      47       1       1    1394     227     457     691       9       9    4169     304     609     915    1169    1171    0.00    1.20    0.15    0.25    0.41    0.26    0.13    0.00    0.85    0.07    0.14    0.32    0.22    0.10    0.00    0.35    0.08    0.11    0.10    0.05    0.02       0
 2014 232    58    2184   0.078    1889   0.067    5649       0    5649     543    1091    1654    1180    1181       0      85      11      25      47       1       1    1394     227     457     691       9       9    4169     304     609     915    1169    1171    0.00    1.19    0.15    0.25    0.40    0.26    0.13    0.00    0.83    0.07    0.14    0.31    0.22    0.10    0.00    0.35    0.08    0.11    0.10    0.05    0.02       0
 2014 233    59    2183   0.078    1888   0.067    5647       0    5647     542    1091    1653    1180    1181       0      84      11      25      46       1       1    1393     227     457     691       9       9    4169     304     609     915    1169    1171    0.00    1.15    0.14    0.24    0.39    0.25    0.13    0.00    0.80    0.07    0.13    0.29    0.21    0.10    0.00    0.35    0.08    0.11    0.10    0.05    0.02       0
 2014 234    60    2182   0.078    1887   0.067    5645       0    5645     542    1090    1652    1180    1181       0      83      11      24      46       1       1    1392     227     456     690       9       9    4169     304     609     915    1169    1171    0.00    1.12    0.14    0.23    0.37    0.24    0.13    0.00    0.76    0.06    0.12    0.28    0.20    0.10    0.00    0.35    0.08    0.11    0.10    0.05    0.02       0
 2014 235    61    2181   0.078    1887   0.067    5644       0    5644     542    1090    1651    1180    1181       0      82      11      24      45       1       1    1392     227     456     690       9       9    4169     304     609     915    1169    1171    0.00    1.08    0.14    0.23    0.36    0.23    0.12    0.00    0.73    0.06    0.12    0.26    0.19    0.10    0.00    0.35    0.08    0.11    0.10    0.05    0.02       0
 2014 236    62    2180   0.078    1886   0.067    5642       0    5642     542    1089    1650    1180    1181       0      81      11      24      44       1       1    1391     227     456     690       9       9    4169     304     609     915    1169    1171    0.00    1.05    0.13    0.22    0.35    0.22    0.12    0.00    0.69    0.06    0.11    0.25    0.18    0.10    0.00    0.35    0.08    0.11    0.09    0.05    0.02       0
 2014 237    63    2179   0.078    1886   0.067    5640       0    5640     541    1088    1649    1180    1181       0      80      11      24      44       1       1    1391     227     456     690       9       9    4168     304     609     915    1169    1171    0.00    1.01    0.13    0.22    0.33    0.21    0.12    0.00    0.66    0.05    0.11    0.24    0.17    0.09    0.00    0.35    0.08    0.11    0.09    0.05    0.02       0
 2014 238    64    2178   0.078    1885   0.067    5639       0    5639     541    1088    1648    1180    1181       0      79      11      23      43       1       1    1390     227     456     689       9       9    4168     304     609     915    1169    1171    0.00    0.97    0.13    0.21    0.32    0.20    0.11    0.00    0.62    0.05    0.10    0.22    0.16    0.09    0.00    0.35    0.08    0.11    0.09    0.05    0.02       0
 2014 239    65    2177   0.078    1885   0.067    5637       0    5637     541    1087    1648    1180    1181       0      78      11      23      43       1       1    1390     226     455     689       9       9    4168     304     609     915    1169    1171    0.00    0.93    0.13    0.21    0.31    0.19    0.11    0.00    0.59    0.05    0.10    0.21    0.15    0.08    0.00    0.35    0.08    0.11    0.09    0.05    0.02       0
 2014 240    66    2176   0.078    1884   0.067    5635       0    5635     541    1087    1647    1180    1181       0      77      10      23      42       1       1    1389     226     455     689       9       9    4168     304     609     915    1169    1171    0.00    0.89    0.12    0.20    0.29    0.18    0.10    0.00    0.55    0.05    0.09    0.20    0.14    0.08    0.00    0.35    0.08    0.11    0.09    0.05    0.02       0
 2014 241    67    2175   0.078    1883   0.067    5634       0    5634     540    1086    1646    1180    1181       0      76      10      22      41       1       1    1388     226     455     689       9       9    4168     304     609     915    1169    1171    0.00    0.86    0.12    0.19    0.28    0.17    0.09    0.00    0.51    0.04    0.08    0.18    0.13    0.07    0.00    0.34    0.08    0.11    0.09    0.05    0.02       0
 2014 242    68    2174   0.078    1883   0.067    5632       0    5632     540    1086    1645    1180    1181       0      75      10      22      41       1       1    1388     226     455     688       9       9    4168     304     609     915    1169    1171    0.00    0.82    0.12    0.19    0.26    0.16    0.09    0.00    0.48    0.04    0.08    0.17    0.12    0.07    0.00    0.34    0.08    0.11    0.09    0.04    0.02       0
 2014 243    69    2173   0.078    1882   0.067    5631       0    5631     540    1085    1644    1180    1181       0      74      10      22      40       1       1    1387     226     455     688       9       9    4168     304     609     915    1169    1171    0.00    0.79    0.11    0.18    0.25    0.16    0.08    0.00    0.45    0.04    0.07    0.16    0.11    0.06    0.00    0.34    0.08    0.11    0.09    0.04    0.02       0
 2014 244    70    2172   0.078    1882   0.067    5629       0    5629     540    1085    1643    1180    1181       0      73      10      22      40       1       1    1387     226     454     688       9       9    4168     304     609     915    1169    1171    0.00    0.76    0.11    0.18    0.24    0.15    0.08    0.00    0.42    0.04    0.07    0.15    0.10    0.06    0.00    0.34    0.08    0.11    0.09    0.04    0.02       0
 2014 245    71    2171   0.078    1881   0.067    5627       0    5627     540    1084    1643    1180    1181       0      72      10      21      39       1       1    1386     226     454     688       9       9    4168     304     609     915    1169    1171    0.00    0.73    0.11    0.17    0.23    0.14    0.08    0.00    0.39    0.03    0.06    0.14    0.10    0.05    0.00    0.34    0.08    0.11    0.09    0.04    0.02       0
 2014 246    72    2170   0.078    1881   0.067    5626       0    5626     539    1084    1642    1180    1181       0      71      10      21      39       1       1    1385     226     454     687       9       9    4168     304     609     915    1169    1171    0.00    0.70    0.11    0.17    0.22    0.13    0.07    0.00    0.36    0.03    0.06    0.13    0.09    0.05    0.00    0.34    0.07    0.11    0.09    0.04    0.02       0
 2014 247    73    2169   0.077    1880   0.067    5624       0    5624     539    1083    1641    1180    1181       0      71      10      21      38       1       1    1385     226     454     687       9       9    4168     304     609     915    1169    1171    0.00    0.67    0.10    0.16    0.21    0.13    0.07    0.00    0.34    0.03    0.06    0.12    0.08    0.05    0.00    0.34    0.07    0.11    0.09    0.04    0.02       0
 2014 248    74    2168   0.077    1880   0.067    5622       0    5622     539    1083    1640    1180    1181       0      70      10      20      38       1       1    1384     225     453     687       9       9    4168     304     609     915    1169    1171    0.00    0.65    0.10    0.16    0.20    0.12    0.06    0.00    0.31    0.03    0.05    0.11    0.08    0.04    0.00    0.33    0.07    0.10    0.09    0.04    0.02       0
 2014 249    75    2167   0.077    1879   0.067    5621       0    5621     539    1082    1639    1180    1181       0      69       9      20      37       1       1    1384     225     453     686       9       9    4168     304     609     915    1169    1171    0.00    0.63    0.10    0.15    0.20    0.12    0.06    0.00    0.29    0.03    0.05    0.11    0.07    0.04    0.00    0.33    0.07    0.10    0.09    0.04    0.02       0
 2014 250    76    2166   0.077    1879   0.067    5619       0    5619     538    1082    1639    1179    1181       0      68       9      20      37       1       1    1383     225     453     686       9       9    4168     304     609     915    1169    1171    0.00    0.61    0.10    0.15    0.19    0.11    0.06    0.00    0.27    0.02    0.05    0.10    0.07    0.04    0.00    0.33    0.07    0.10    0.09    0.04    0.02       0
 2014 251    77    2165   0.077    1878   0.067    5618       0    5618     538    1081    1638    1179    1181       0      67       9      20      36       1       1    1382     225     453     686       9       9    4168     304     609     915    1169    1171    0.00    0.58    0.10    0.15    0.18    0.11    0.06    0.00    0.25    0.02    0.04    0.09    0.06    0.04    0.00    0.33    0.07    0.10    0.09    0.04    0.02       0
 2014 252    78    2164   0.077    1877   0.067    5616       0    5616     538    1081    1637    1179    1181       0      66       9      20      36       1       1    1382     225     452     686       9       9    4168     304     609     915    1169    1171    0.00    0.57    0.09    0.14    0.17    0.10    0.05    0.00    0.24    0.02    0.04    0.09    0.06    0.03    0.00    0.33    0.07    0.10    0.09    0.04    0.02       0
 2014 253    79    2163   0.077    1877   0.067    5615       0    5615     538    1081    1636    1179    1181       0      65       9      19      35       1       1    1381     225     452     685       9       9    4168     304     609     915    1169    1171    0.00    0.55    0.09    0.14    0.17    0.10    0.05    0.00    0.22    0.02    0.04    0.08    0.05    0.03    0.00    0.33    0.07    0.10    0.09    0.04    0.02       0
 2014 254    80    2162   0.077    1876   0.067    5613       0    5613     537    1080    1636    1179    1181       0      65       9      19      35       1       1    1380     225     452     685       9       9    4168     304     609     915    1169    1171    0.00    0.53    0.09    0.14    0.16    0.09    0.05    0.00    0.21    0.02    0.03    0.08    0.05    0.03    0.00    0.33    0.07    0.10    0.09    0.04    0.02       0
 2014 255    81    2161   0.077    1876   0.067    5612       0    5612     537    1080    1635    1179    1181       0      64       9      19      35       1       1    1380     225     452     685       9       9    4168     304     609     915    1169    1171    0.00    0.52    0.09    0.13    0.16    0.09    0.05    0.00    0.19    0.02    0.03    0.07    0.05    0.03    0.00    0.33    0.07    0.10    0.09    0.04    0.02       0
 2014 256    82    2161   0.077    1875   0.067    5610       0    5610     537    1079    1634    1179    1181       0      63       9      19      34       1       1    1379     225     452     684       9       9    4168     304     609     915    1169    1171    0.00    0.50    0.09    0.13    0.15    0.09    0.05    0.00    0.18    0.02    0.03    0.07    0.04    0.02    0.00    0.32    0.07    0.10    0.09    0.04    0.02       0
 2014 257    83    2160   0.077    1875   0.067    5609       0    5609     537    1079    1633    1179    1181       0      63       9      18      34       1       1    1378     224     451     684       9       9    4168     304     609     915    1169    1171    0.00    0.49    0.09    0.13    0.15    0.08    0.04    0.00    0.17    0.02    0.03    0.06    0.04    0.02    0.00    0.32    0.07    0.10    0.09    0.04    0.02       0
 2014 258    84    2159   0.077    1874   0.067    5608       0    5608     537    1078    1633    1179    1181       0      62       9      18      33       1       1    1378     224     451     684       9       9    4168     304     609     915    1169    1171    0.00    0.48    0.09    0.13    0.14    0.08    0.04    0.00    0.16    0.01    0.03    0.06    0.04    0.02    0.00    0.32    0.07    0.10    0.09    0.04    0.02       0
 2014 259    85    2158   0.077    1874   0.067    5606       0    5606     536    1078    1632    1179    1181       0      61       8      18      33       1       1    1377     224     451     683       9       9    4168     304     609     915    1169    1171    0.00    0.47    0.08    0.13    0.14    0.08    0.04    0.00    0.15    0.01    0.03    0.05    0.04    0.02    0.00    0.32    0.07    0.10    0.09    0.04    0.02       0
 2014 260    86    2157   0.077    1873   0.067    5605       0    5605     536    1077    1631    1179    1181       0      60       8      18      32       1       1    1376     224     451     683       9       9    4167     304     609     915    1169    1171    0.00    0.46    0.08    0.12    0.14    0.08    0.04    0.00    0.14    0.01    0.02    0.05    0.03    0.02    0.00    0.32    0.07    0.10    0.09    0.04    0.02       0
 2014 261    87    2156   0.077    1873   0.067    5603       0    5603     536    1077    1630    1179    1181       0      60       8      18      32       1       1    1376     224     450     683       9       9    4167     304     609     915    1169    1171    0.00    0.45    0.08    0.12    0.13    0.07    0.04    0.00    0.13    0.01    0.02    0.05    0.03    0.02    0.00    0.32    0.07    0.10    0.09    0.04    0.02       0
 2014 262    88    2155   0.077    1872   0.067    5602       0    5602     536    1077    1630    1179    1181       0      59       8      18      32       1       1    1375     224     450     682       9       9    4167     304     609     915    1169    1171    0.00    0.44    0.08    0.12    0.13    0.07    0.04    0.00    0.12    0.01    0.02    0.04    0.03    0.02    0.00    0.32    0.07    0.10    0.09    0.04    0.02       0
 2014 263    89    2155   0.077    1872   0.067    5601       0    5601     536    1076    1629    1179    1181       0      58       8      17      31       1       1    1374     224     450     682       9       9    4167     304     609     915    1169    1171    0.00    0.43    0.08    0.12    0.13    0.07    0.04    0.00    0.11    0.01    0.02    0.04    0.03    0.02    0.00    0.31    0.07    0.10    0.09    0.04    0.02       0
 2014 264    90    2154   0.077    1871   0.067    5599       0    5599     535    1076    1628    1179    1181       0      58       8      17      31       1       1    1374     224     450     682       9       9    4167     304     609     915    1169    1171    0.00    0.42    0.08    0.12    0.12    0.07    0.03    0.00    0.11    0.01    0.02    0.04    0.03    0.01    0.00    0.31    0.07    0.10    0.08    0.04    0.02       0
 2014 265    91    2153   0.077    1871   0.067    5598       0    5598     535    1075    1627    1179    1181       0      57       8      17      31       1       1    1373     224     449     681       9       9    4167     304     609     915    1169    1171    0.00    0.41    0.08    0.11    0.12    0.06    0.03    0.00    0.10    0.01    0.02    0.04    0.02    0.01    0.00    0.31    0.07    0.10    0.08    0.04    0.02       0
 2014 266    92    2152   0.077    1870   0.067    5596       0    5596     535    1075    1627    1179    1181       0      56       8      17      30       1       1    1372     223     449     681       9       9    4167     304     609     915    1169    1171    0.00    0.40    0.08    0.11    0.12    0.06    0.03    0.00    0.09    0.01    0.02    0.03    0.02    0.01    0.00    0.31    0.07    0.10    0.08    0.04    0.02       0
 2014 267    93    2151   0.077    1870   0.067    5595       0    5595     535    1074    1626    1179    1181       0      56       8      17      30       1       1    1371     223     449     681       9       9    4167     304     609     915    1169    1171    0.00    0.39    0.08    0.11    0.11    0.06    0.03    0.00    0.08    0.01    0.01    0.03    0.02    0.01    0.00    0.31    0.07    0.10    0.08    0.04    0.02       0
 2014 268    94    2150   0.077    1869   0.067    5593       0    5593     535    1074    1625    1179    1181       0      55       8      16      29       1       1    1371     223     449     680       9       9    4167     304     609     915    1169    1171    0.00    0.39    0.08    0.11    0.11    0.06    0.03    0.00    0.08    0.01    0.01    0.03    0.02    0.01    0.00    0.31    0.07    0.10    0.08    0.04    0.02       0
 2014 269    95    2149   0.077    1869   0.067    5592       0    5592     534    1073    1625    1179    1181       0      54       8      16      29       1       1    1370     223     448     680       9       9    4167     304     609     915    1169    1171    0.00    0.38    0.08    0.11    0.11    0.06    0.03    0.00    0.07    0.01    0.01    0.03    0.02    0.01    0.00    0.31    0.07    0.10    0.08    0.04    0.02       0
 2014 270    96    2148   0.077    1868   0.067    5590       0    5590     534    1073    1624    1179    1180       0      54       8      16      29       1       1    1369     223     448     680       9       9    4167     304     609     915    1169    1171    0.00    0.37    0.07    0.11    0.11    0.06    0.03    0.00    0.07    0.01    0.01    0.02    0.02    0.01    0.00    0.31    0.07    0.10    0.08    0.04    0.02       0
 2014 271    97    2148   0.077    1868   0.067    5589       0    5589     534    1073    1623    1179    1180       0      53       7      16      28       1       1    1368     223     448     679       9       9    4167     304     609     915    1169    1171    0.00    0.37    0.07    0.11    0.10    0.05    0.03    0.00    0.06    0.01    0.01    0.02    0.02    0.01    0.00    0.30    0.07    0.10    0.08    0.04    0.02       0
 2014 272    98    2147   0.077    1867   0.067    5588       0    5588     534    1072    1622    1179    1180       0      53       7      16      28       1       1    1368     223     448     679       9       9    4167     304     609     915    1169    1170    0.00    0.36    0.07    0.10    0.10    0.05    0.03    0.00    0.06    0.01    0.01    0.02    0.01    0.01    0.00    0.30    0.07    0.09    0.08    0.04    0.02       0
 2014 273    99    2146   0.077    1867   0.067    5586       0    5586     534    1072    1622    1179    1180       0      52       7      16      28       1       1    1367     223     447     679       9       9    4167     304     609     915    1169    1170    0.00    0.36    0.07    0.10    0.10    0.05    0.03    0.00    0.05    0.01    0.01    0.02    0.01    0.01    0.00    0.30    0.07    0.09    0.08    0.04    0.02       0
 2014 274   100    2145   0.077    1867   0.067    5585       0    5585     533    1071    1621    1179    1180       0      52       7      15      28       1       1    1366     222     447     678       9       9    4167     304     609     915    1169    1170    0.00    0.35    0.07    0.10    0.10    0.05    0.03    0.00    0.05    0.00    0.01    0.02    0.01    0.01    0.00    0.30    0.07    0.09    0.08    0.04    0.02       0
 2014 275   101    2144   0.077    1866   0.067    5584       0    5584     533    1071    1621    1179    1180       0      51       7      15      27       1       1    1365     222     447     678       9       9    4167     304     609     915    1169    1170    0.00    0.35    0.07    0.10    0.10    0.05    0.03    0.00    0.05    0.00    0.01    0.02    0.01    0.01    0.00    0.30    0.07    0.09    0.08    0.04    0.02       0
 2014 276   102    2143   0.077    1866   0.067    5582       0    5582     533    1071    1620    1179    1180       0      51       7      15      27       1       1    1365     222     447     677       9       9    4167     304     609     915    1169    1170    0.00    0.34    0.07    0.10    0.10    0.05    0.02    0.00    0.04    0.00    0.01    0.02    0.01    0.01    0.00    0.30    0.07    0.09    0.08    0.04    0.02       0
 2014 277   103    2142   0.077    1865   0.067    5581       0    5581     533    1070    1619    1179    1180       0      50       7      15      27       1       1    1364     222     446     677       9       9    4167     304     609     915    1169    1170    0.00    0.34    0.07    0.10    0.09    0.05    0.02    0.00    0.04    0.00    0.01    0.01    0.01    0.01    0.00    0.30    0.07    0.09    0.08    0.04    0.02       0
 2014 278   104    2141   0.076    1865   0.067    5579       0    5579     533    1070    1618    1179    1180       0      50       7      15      26       1       1    1363     222     446     677       9       9    4167     304     609     915    1169    1170    0.00    0.33    0.07    0.10    0.09    0.05    0.02    0.00    0.04    0.00    0.01    0.01    0.01    0.01    0.00    0.29    0.07    0.09    0.08    0.04    0.02       0
 2014 279   105    2141   0.076    1864   0.067    5578       0    5578     532    1069    1618    1179    1180       0      49       7      15      26       1       1    1362     222     446     676       9       9    4167     304     609     915    1169    1170    0.00    0.33    0.07    0.10    0.09    0.05    0.02    0.00    0.03    0.00    0.01    0.01    0.01    0.00    0.00    0.29    0.07    0.09    0.08    0.04    0.02       0
 2014 280   106    2140   0.076    1864   0.067    5577       0    5577     532    1069    1617    1179    1180       0      48       7      14      26       1       1    1361     222     445     676       9       9    4167     304     609     915    1168    1170    0.00    0.32    0.07    0.10    0.09    0.05    0.02    0.00    0.03    0.00    0.01    0.01    0.01    0.00    0.00    0.29    0.07    0.09    0.08    0.04    0.02       0
 2014 281   107    2139   0.076    1863   0.067    5575       0    5575     532    1068    1616    1179    1180       0      48       7      14      25       1       1    1361     221     445     675       9       9    4166     304     609     915    1168    1170    0.00    0.32    0.07    0.10    0.09    0.04    0.02    0.00    0.03    0.00    0.00    0.01    0.01    0.00    0.00    0.29    0.06    0.09    0.08    0.04    0.02       0
 2014 282   108    2138   0.076    1863   0.067    5574       0    5574     532    1068    1616    1178    1180       0      47       7      14      25       1       1    1360     221     445     675       9       9    4166     304     609     915    1168    1170    0.00    0.32    0.07    0.09    0.09    0.04    0.02    0.00    0.03    0.00    0.00    0.01    0.01    0.00    0.00    0.29    0.06    0.09    0.08    0.04    0.02       0
 2014 283   109    2137   0.076    1862   0.067    5573       0    5573     532    1067    1615    1178    1180       0      47       7      14      25       1       1    1359     221     445     675       9       9    4166     304     609     915    1168    1170    0.00    0.31    0.07    0.09    0.09    0.04    0.02    0.00    0.03    0.00    0.00    0.01    0.01    0.00    0.00    0.29    0.06    0.09    0.08    0.04    0.02       0
 2014 284   110    2136   0.076    1862   0.066    5571       0    5571     531    1067    1614    1178    1180       0      47       7      14      25       1       1    1358     221     444     674       9       9    4166     304     609     915    1168    1170    0.00    0.31    0.07    0.09    0.09    0.04    0.02    0.00    0.02    0.00    0.00    0.01    0.01    0.00    0.00    0.29    0.06    0.09    0.08    0.04    0.02       0
 2014 285   111    2136   0.076    1861   0.066    5570       0    5570     531    1067    1614    1178    1180       0      46       7      14      24       1       1    1358     221     444     674       9       9    4166     304     609     915    1168    1170    0.00    0.31    0.07    0.09    0.08    0.04    0.02    0.00    0.02    0.00    0.00    0.01    0.01    0.00    0.00    0.28    0.06    0.09    0.08    0.04    0.02       0
 2014 286   112    2135   0.076    1861   0.066    5569       0    5569     531    1066    1613    1178    1180       0      46       7      14      24       1       1    1357     221     444     674       9       9    4166     304     609     915    1168    1170    0.00    0.30    0.07    0.09    0.08    0.04    0.02    0.00    0.02    0.00    0.00    0.01    0.00    0.00    0.00    0.28    0.06    0.09    0.08    0.04    0.02       0
 2014 287   113    2135   0.076    1861   0.066    5568       0    5568     531    1066    1613    1178    1180       0      46       7      14      24       1       1    1356     221     444     673       9       9    4166     304     609     915    1168    1170    0.00    0.30    0.07    0.09    0.08    0.04    0.02    0.00    0.02    0.00    0.00    0.01    0.00    0.00    0.00    0.28    0.06    0.09    0.08    0.04    0.02       0
 2014 288   114    2134   0.076    1860   0.066    5567       0    5567     531    1066    1612    1178    1180       0      45       6      14      24       1       1    1356     221     443     673       9       9    4166     304     609     915    1168    1170    0.00    0.30    0.07    0.09    0.08    0.04    0.02    0.00    0.02    0.00    0.00    0.01    0.00    0.00    0.00    0.28    0.06    0.09    0.08    0.04    0.02       0
 2014 289   115    2133   0.076    1860   0.066    5566       0    5566     531    1065    1612    1178    1180       0      45       6      13      24       1       1    1355     221     443     673       9       9    4166     304     609     915    1168    1170    0.00    0.30    0.06    0.09    0.08    0.04    0.02    0.00    0.02    0.00    0.00    0.01    0.00    0.00    0.00    0.28    0.06    0.09    0.08    0.04    0.02       0
 2014 290   116    2133   0.076    1860   0.066    5565       0    5565     531    1065    1611    1178    1180       0      45       6      13      24       1       1    1354     221     443     672       9       9    4166     304     609     915    1168    1170    0.00    0.30    0.06    0.09    0.08    0.04    0.02    0.00    0.02    0.00    0.00    0.01    0.00    0.00    0.00    0.28    0.06    0.09    0.08    0.04    0.02       0
 2014 291   117    2132   0.076    1859   0.066    5564       0    5564     531    1065    1611    1178    1180       0      44       6      13      23       1       1    1354     221     443     672       9       9    4166     304     609     915    1168    1170    0.00    0.29    0.06    0.09    0.08    0.04    0.02    0.00    0.01    0.00    0.00    0.01    0.00    0.00    0.00    0.28    0.06    0.09    0.07    0.04    0.02       0
 2014 292   118    2132   0.076    1859   0.066    5564       0    5564     531    1065    1610    1178    1180       0      44       6      13      23       1       1    1353     221     443     672       9       9    4166     304     609     915    1168    1170    0.00    0.29    0.06    0.09    0.08    0.04    0.02    0.00    0.01    0.00    0.00    0.00    0.00    0.00    0.00    0.28    0.06    0.09    0.07    0.04    0.02       0
 2014 293   119    2131   0.076    1859   0.066    5563       0    5563     531    1064    1610    1178    1180       0      44       6      13      23       1       1    1353     221     442     671       9       9    4166     304     609     915    1168    1170    0.00    0.29    0.06    0.09    0.08    0.04    0.02    0.00    0.01    0.00    0.00    0.00    0.00    0.00    0.00    0.28    0.06    0.09    0.07    0.04    0.02       0
 2014 294   120    2131   0.076    1858   0.066    5562       0    5562     531    1064    1609    1178    1180       0      44       6      13      23       1       1    1352     221     442     671       9       9    4166     304     609     915    1168    1170    0.00    0.29    0.06    0.09    0.08    0.04    0.02    0.00    0.01    0.00    0.00    0.00    0.00    0.00    0.00    0.28    0.06    0.09    0.07    0.04    0.02       0
 2014 295   121    2131   0.076    1858   0.066    5561       0    5561     531    1064    1609    1178    1180       0      44       6      13      23       1       1    1352     220     442     671       9       9    4166     304     609     915    1168    1170    0.00    0.29    0.06    0.09    0.08    0.04    0.02    0.00    0.01    0.00    0.00    0.00    0.00    0.00    0.00    0.28    0.06    0.09    0.07    0.04    0.02       0
 2014 296   122    2130   0.076    1858   0.066    5561       0    5561     530    1064    1609    1178    1180       0      43       6      13      23       1       1    1351     220     442     671       9       9    4166     304     609     915    1168    1170    0.00    0.29    0.06    0.09    0.08    0.04    0.02    0.00    0.01    0.00    0.00    0.00    0.00    0.00    0.00    0.27    0.06    0.09    0.07    0.04    0.02       0
 2014 297   123    2130   0.076    1858   0.066    5560       0    5560     530    1063    1608    1178    1180       0      43       6      13      23       1       1    1351     220     442     670       9       9    4166     304     609     915    1168    1170    0.00    0.28    0.06    0.09    0.08    0.04    0.02    0.00    0.01    0.00    0.00    0.00    0.00    0.00    0.00    0.27    0.06    0.09    0.07    0.04    0.02       0
 2014 298   124    2129   0.076    1857   0.066    5559       0    5559     530    1063    1608    1178    1180       0      43       6      13      23       1       1    1350     220     442     670       9       9    4166     304     609     915    1168    1170    0.00    0.28    0.06    0.09    0.08    0.04    0.02    0.00    0.01    0.00    0.00    0.00    0.00    0.00    0.00    0.27    0.06    0.09    0.07    0.04    0.02       0
 2014 299   125    2129   0.076    1857   0.066    5559       0    5559     530    1063    1608    1178    1180       0      43       6      13      23       1       1    1350     220     441     670       9       9    4166     304     609     915    1168    1170    0.00    0.28    0.06    0.09    0.08    0.04    0.02    0.00    0.01    0.00    0.00    0.00    0.00    0.00    0.00    0.27    0.06    0.08    0.07    0.03    0.02       0
 2014 300   126    2129   0.076    1857   0.066    5558       0    5558     530    1063    1607    1178    1180       0      43       6      13      22       1       1    1350     220     441     670       9       9    4166     304     609     915    1168    1170    0.00    0.28    0.06    0.09    0.08    0.04    0.02    0.00    0.01    0.00    0.00    0.00    0.00    0.00    0.00    0.27    0.06    0.08    0.07    0.03    0.02       0
 2014 301   127    2129   0.076    1857   0.066    5558       0    5558     530    1063    1607    1178    1180       0      43       6      13      22       1       1    1349     220     441     669       9       9    4166     304     609     915    1168    1170    0.00    0.28    0.06    0.09    0.08    0.04    0.02    0.00    0.01    0.00    0.00    0.00    0.00    0.00    0.00    0.27    0.06    0.08    0.07    0.03    0.02       0
 2014 302   128    2128   0.076    1856   0.066    5557       0    5557     530    1062    1607    1178    1180       0      43       6      13      22       1       1    1349     220     441     669       9       9    4166     304     609     915    1168    1170    0.00    0.28    0.06    0.09    0.08    0.04    0.02    0.00    0.01    0.00    0.00    0.00    0.00    0.00    0.00    0.27    0.06    0.08    0.07    0.03    0.02       0
 2014 303   129    2128   0.076    1856   0.066    5557       0    5557     530    1062    1607    1178    1180       0      42       6      13      22       1       1    1349     220     441     669       9       9    4166     304     609     915    1168    1170    0.00    0.28    0.06    0.09    0.08    0.04    0.02    0.00    0.01    0.00    0.00    0.00    0.00    0.00    0.00    0.27    0.06    0.08    0.07    0.03    0.02       0
 2014 304   130    2128   0.076    1856   0.066    5557       0    5557     530    1062    1606    1178    1180       0      42       6      13      22       1       1    1348     220     441     669       9       9    4165     304     609     915    1168    1170    0.00    0.28    0.06    0.09    0.08    0.04    0.02    0.00    0.01    0.00    0.00    0.00    0.00    0.00    0.00    0.27    0.06    0.08    0.07    0.03    0.02       0
 2014 305   131    2128   0.076    1856   0.066    5556       0    5556     530    1062    1606    1178    1180       0      42       6      13      22       1       1    1348     220     441     669       9       9    4165     304     609     915    1168    1170    0.00    0.28    0.06    0.09    0.07    0.04    0.02    0.00    0.01    0.00    0.00    0.00    0.00    0.00    0.00    0.27    0.06    0.08    0.07    0.03    0.02       0
 2014 306   132    2128   0.076    1856   0.066    5556       0    5556     530    1062    1606    1178    1180       0      42       6      13      22       1       1    1348     220     441     669       9       9    4165     304     609     915    1168    1170    0.00    0.28    0.06    0.09    0.07    0.04    0.02    0.00    0.01    0.00    0.00    0.00    0.00    0.00    0.00    0.27    0.06    0.08    0.07    0.03    0.02       0
 2014 307   133    2127   0.076    1856   0.066    5556       0    5556     530    1062    1606    1178    1180       0      42       6      13      22       1       1    1348     220     441     669       9       9    4165     304     609     915    1168    1170    0.00    0.28    0.06    0.09    0.07    0.04    0.02    0.00    0.01    0.00    0.00    0.00    0.00    0.00    0.00    0.27    0.06    0.08    0.07    0.03    0.02       0
 2014 308   134    2127   0.076    1856   0.066    5555       0    5555     530    1062    1606    1178    1180       0      42       6      13      22       1       1    1348     220     441     668       9       9    4165     304     609     915    1168    1170    0.00    0.28    0.06    0.08    0.07    0.04    0.02    0.00    0.01    0.00    0.00    0.00    0.00    0.00    0.00    0.27    0.06    0.08    0.07    0.03    0.02       0
 2014 309   135    2127   0.076    1856   0.066    5555       0    5555     530    1062    1606    1178    1180       0      42       6      13      22       1       1    1347     220     441     668       9       9    4165     304     609     915    1168    1170    0.00    0.28    0.06    0.08    0.07    0.04    0.02    0.00    0.01    0.00    0.00    0.00    0.00    0.00    0.00    0.27    0.06    0.08    0.07    0.03    0.02       0
 2014 310   136    2127   0.076    1856   0.066    5555       0    5555     530    1062    1606    1178    1180       0      42       6      12      22       1       1    1347     220     440     668       9       9    4165     304     609     915    1168    1170    0.00    0.27    0.06    0.08    0.07    0.04    0.02    0.00    0.01    0.00    0.00    0.00    0.00    0.00    0.00    0.27    0.06    0.08    0.07    0.03    0.02       0
 2014 311   137    2127   0.076    1855   0.066    5555       0    5555     530    1062    1606    1178    1180       0      42       6      12      22       1       1    1347     220     440     668       9       9    4165     304     609     915    1168    1170    0.00    0.27    0.06    0.08    0.07    0.03    0.02    0.00    0.01    0.00    0.00    0.00    0.00    0.00    0.00    0.27    0.06    0.08    0.07    0.03    0.02       0
 2014 312   138    2127   0.076    1855   0.066    5554       0    5554     530    1062    1605    1178    1180       0      42       6      12      22       1       1    1347     220     440     668       9       9    4165     304     609     915    1168    1170    0.00    0.27    0.06    0.08    0.07    0.03    0.02    0.00    0.01    0.00    0.00    0.00    0.00    0.00    0.00    0.27    0.06    0.08    0.07    0.03    0.02       0
 2014 313   139    2127   0.076    1855   0.066    5554       0    5554     530    1062    1605    1178    1180       0      42       6      12      22       1       1    1347     220     440     668       9       9    4165     304     609     915    1168    1170    0.00    0.27    0.06    0.08    0.07    0.03    0.02    0.00    0.01    0.00    0.00    0.00    0.00    0.00    0.00    0.27    0.06    0.08    0.07    0.03    0.02       0
 2014 314   140    2126   0.076    1855   0.066    5554       0    5554     530    1061    1605    1178    1180       0      42       6      12      22       1       1    1347     220     440     668       9       9    4165     304     609     915    1168    1170    0.00    0.27    0.06    0.08    0.07    0.03    0.02    0.00    0.01    0.00    0.00    0.00    0.00    0.00    0.00    0.27    0.06    0.08    0.07    0.03    0.02       0
 2014 315   141    2126   0.076    1855   0.066    5554       0    5554     530    1061    1605    1178    1179       0      42       6      12      22       1       1    1347     220     440     668       9       9    4165     304     609     915    1168    1170    0.00    0.27    0.06    0.08    0.07    0.03    0.02    0.00    0.01    0.00    0.00    0.00    0.00    0.00    0.00    0.27    0.06    0.08    0.07    0.03    0.02       0
 2014 316   142    2126   0.076    1855   0.066    5554       0    5554     530    1061    1605    1178    1179       0      42       6      12      22       1       1    1346     220     440     668       9       9    4165     304     609     915    1168    1170    0.00    0.27    0.06    0.08    0.07    0.03    0.02    0.00    0.01    0.00    0.00    0.00    0.00    0.00    0.00    0.27    0.06    0.08    0.07    0.03    0.02       0
 2014 317   143    2126   0.076    1855   0.066    5554       0    5554     530    1061    1605    1178    1179       0      42       6      12      22       1       1    1346     220     440     668       9       9    4165     304     609     915    1168    1170    0.00    0.27    0.06    0.08    0.07    0.03    0.02    0.00    0.01    0.00    0.00    0.00    0.00    0.00    0.00    0.27    0.06    0.08    0.07    0.03    0.02       0
 2014 318   144    2126   0.076    1855   0.066    5553       0    5553     530    1061    1605    1178    1179       0      42       6      12      22       1       1    1346     220     440     668       9       9    4165     304     609     915    1168    1170    0.00    0.27    0.06    0.08    0.07    0.03    0.02    0.00    0.01    0.00    0.00    0.00    0.00    0.00    0.00    0.27    0.06    0.08    0.07    0.03    0.02       0
 2014 319   145    2126   0.076    1855   0.066    5553       0    5553     530    1061    1605    1178    1179       0      42       6      12      22       1       1    1346     220     440     668       9       9    4165     304     609     915    1168    1170    0.00    0.27    0.06    0.08    0.07    0.03    0.02    0.00    0.01    0.00    0.00    0.00    0.00    0.00    0.00    0.27    0.06    0.08    0.07    0.03    0.02       0
 2014 320   146    2126   0.076    1855   0.066    5553       0    5553     530    1061    1605    1178    1179       0      42       6      12      22       1       1    1346     220     440     668       9       9    4165     304     609     915    1168    1170    0.00    0.27    0.06    0.08    0.07    0.03    0.02    0.00    0.01    0.00    0.00    0.00    0.00    0.00    0.00    0.27    0.06    0.08    0.07    0.03    0.02       0
 2014 321   147    2126   0.076    1855   0.066    5553       0    5553     530    1061    1605    1178    1179       0      42       6      12      22       1       1    1346     220     440     668       9       9    4165     304     609     915    1168    1170    0.00    0.27    0.06    0.08    0.07    0.03    0.02    0.00    0.01    0.00    0.00    0.00    0.00    0.00    0.00    0.27    0.06    0.08    0.07    0.03    0.02       0
 2014 322   148    2126   0.076    1855   0.066    5553       0    5553     530    1061    1605    1178    1179       0      42       6      12      22       1       1    1346     220     440     668       9       9    4165     304     609     915    1168    1170    0.00    0.27    0.06    0.08    0.07    0.03    0.02    0.00    0.01    0.00    0.00    0.00    0.00    0.00    0.00    0.27    0.06    0.08    0.07    0.03    0.02       0
 2014 323   149    2126   0.076    1855   0.066    5553       0    5553     530    1061    1605    1178    1179       0      42       6      12      22       1       1    1346     220     440     668       9       9    4165     304     609     915    1168    1170    0.00    0.27    0.06    0.08    0.07    0.03    0.02    0.00    0.01    0.00    0.00    0.00    0.00    0.00    0.00    0.27    0.06    0.08    0.07    0.03    0.02       0
 2014 324   150    2126   0.076    1855   0.066    5553       0    5553     530    1061    1605    1178    1179       0      42       6      12      22       1       1    1346     220     440     668       9       9    4165     304     609     915    1168    1170    0.00    0.27    0.06    0.08    0.07    0.03    0.02    0.00    0.01    0.00    0.00    0.00    0.00    0.00    0.00    0.27    0.06    0.08    0.07    0.03    0.02       0
 2014 325   151    2126   0.076    1855   0.066    5553       0    5553     530    1061    1605    1178    1179       0      42       6      12      22       1       1    1346     220     440     668       9       9    4165     304     609     915    1168    1170    0.00    0.27    0.06    0.08    0.07    0.03    0.02    0.00    0.01    0.00    0.00    0.00    0.00    0.00    0.00    0.27    0.06    0.08    0.07    0.03    0.02       0
 2014 326   152    2126   0.076    1855   0.066    5553       0    5553     530    1061    1605    1178    1179       0      42       6      12      22       1       1    1346     220     440     668       9       9    4165     304     609     915    1168    1170    0.00    0.27    0.06    0.08    0.07    0.03    0.02    0.00    0.01    0.00    0.00    0.00    0.00    0.00    0.00    0.27    0.06    0.08    0.07    0.03    0.02       0
 2014 327   153    2126   0.076    1855   0.066    5553       0    5553     530    1061    1605    1178    1179       0      42       6      12      22       1       1    1346     220     440     668       9       9    4165     304     609     915    1168    1170    0.00    0.27    0.06    0.08    0.07    0.03    0.02    0.00    0.01    0.00    0.00    0.00    0.00    0.00    0.00    0.27    0.06    0.08    0.07    0.03    0.02       0
 2014 328   154    2126   0.076    1855   0.066    5553       0    5553     530    1061    1605    1178    1179       0      42       6      12      22       1       1    1346     220     440     668       9       9    4165     304     609     915    1168    1170    0.00    0.27    0.06    0.08    0.07    0.03    0.02    0.00    0.01    0.00    0.00    0.00    0.00    0.00    0.00    0.26    0.06    0.08    0.07    0.03    0.02       0
 2014 329   155    2126   0.076    1855   0.066    5553       0    5553     530    1061    1605    1178    1179       0      42       6      12      22       1       1    1346     220     440     668       9       9    4165     304     609     915    1168    1170    0.00    0.27    0.06    0.08    0.07    0.03    0.02    0.00    0.01    0.00    0.00    0.00    0.00    0.00    0.00    0.26    0.06    0.08    0.07    0.03    0.02       0
 2014 330   156    2126   0.076    1855   0.066    5553       0    5553     530    1061    1605    1178    1179       0      42       6      12      22       1       1    1346     220     440     668       9       9    4165     304     609     915    1168    1170    0.00    0.27    0.06    0.08    0.07    0.03    0.02    0.00    0.01    0.00    0.00    0.00    0.00    0.00    0.00    0.26    0.06    0.08    0.07    0.03    0.02       0
