*SOIL-PLANT-ATMOSPHERE MODULE OUTPUT FILE

*DSSAT Cropping System Model Ver. 4.7.2.000 -release      OCT 15, 2021; 17:59:35
                                                                                
*RUN   1        :             CSM335_date_1 MZCER047 ITSA1301    1              
 MODEL          : MZCER047 - Maize                                              
 EXPERIMENT     : ITSA1301 SG CALIBRATION SETUP OF SORGHUM SOWING DATES         
 DATA PATH      :                                                               
 TREATMENT  1   :             CSM335_date_1 MZCER047                            
  
!                                                                                                                                                Soil evaporation (mm/d) by soil depth (cm):
!                                                                                                                                                0-5    5-15   15-30   30-53   53-77  77-100
@YEAR DOY   DAS   SRAA  TMAXA  TMINA   EOAA   EOPA   EOSA   ETAA   EPAA   ESAA   EFAA   EMAA    EOAC    ETAC    EPAC    ESAC    EFAC    EMAC    ES1D    ES2D    ES3D    ES4D    ES5D    ES6D   TRWUD
 2014 281     1  15.14  29.40  18.70  3.559  0.000  3.559  0.450  0.000  0.450  0.000  0.000    3.56    0.45    0.00    0.45    0.00    0.00   0.379   0.047   0.014   0.006   0.003   0.001   0.000
 2014 282     2  21.60  31.10  16.50  5.044  0.000  5.044  0.502  0.000  0.502  0.000  0.000    8.60    0.95    0.00    0.95    0.00    0.00   0.432   0.047   0.014   0.006   0.003   0.001   0.000
 2014 283     3  21.39  33.00  16.40  5.290  0.000  5.290  0.585  0.000  0.585  0.000  0.000   13.89    1.54    0.00    1.54    0.00    0.00   0.514   0.046   0.014   0.006   0.003   0.001   0.000
 2014 284     4  24.44  31.90  18.20  6.092  0.000  6.092  0.575  0.000  0.575  0.000  0.000   19.98    2.11    0.00    2.11    0.00    0.00   0.505   0.046   0.014   0.006   0.003   0.001   0.000
 2014 285     5  22.39  29.70  16.90  5.332  0.000  5.332  0.531  0.000  0.531  0.000  0.000   25.32    2.64    0.00    2.64    0.00    0.00   0.462   0.046   0.014   0.006   0.003   0.001   0.000
 2014 286     6  20.23  32.70  15.70  4.883  0.000  4.883  0.492  0.000  0.492  0.000  0.000   30.20    3.13    0.00    3.13    0.00    0.00   0.422   0.046   0.014   0.006   0.003   0.001   0.000
 2014 287     7  17.46  32.00  18.70  4.231  0.000  4.231  0.456  0.000  0.456  0.000  0.000   34.43    3.59    0.00    3.59    0.00    0.00   0.386   0.045   0.014   0.006   0.003   0.001   0.000
 2014 288     8  15.35  32.30  17.80  3.673  0.008  3.665  0.590  0.008  0.581  0.000  0.000   38.10    4.18    0.01    4.17    0.00    0.00   0.509   0.049   0.014   0.006   0.003   0.001   0.001
 2014 289     9  18.93  28.90  16.20  4.638  0.021  4.617  2.798  0.021  2.777  0.000  0.000   42.74    6.98    0.03    6.95    0.00    0.00   0.945   0.522   0.389   0.391   0.299   0.231   0.002
 2014 290    10  21.94  31.60  16.90  5.400  0.035  5.365  3.208  0.035  3.173  0.000  0.000   48.14   10.19    0.06   10.12    0.00    0.00   1.237   0.627   0.403   0.384   0.294   0.228   0.004
 2014 291    11  18.27  30.10  17.70  4.954  0.045  4.908  3.300  0.045  3.255  0.000  0.000   53.10   13.49    0.11   13.38    0.00    0.00   1.188   0.733   0.442   0.376   0.290   0.225   0.005
 2014 292    12  11.68  27.80  17.10  2.855  0.034  2.821  2.855  0.034  2.821  0.000  0.000   55.95   16.34    0.14   16.20    0.00    0.00   1.073   0.651   0.414   0.300   0.216   0.168   0.003
 2014 293    13   6.85  22.40  16.40  1.726  0.034  1.692  1.726  0.034  1.692  0.000  0.000   57.68   18.07    0.18   17.89    0.00    0.00   0.629   0.409   0.273   0.190   0.112   0.079   0.003
 2014 294    14  14.98  26.90  16.10  4.003  0.105  3.897  4.003  0.105  3.897  0.000  0.000   61.68   22.07    0.28   21.79    0.00    0.00   1.160   0.883   0.717   0.589   0.351   0.196   0.011
 2014 295    15  15.65  28.60  19.10  3.982  0.139  3.842  3.982  0.139  3.842  0.000  0.000   65.66   26.05    0.42   25.63    0.00    0.00   1.006   0.796   0.693   0.657   0.456   0.235   0.014
 2014 296    16  10.15  27.20  18.10  2.420  0.113  2.307  2.420  0.113  2.307  0.000  0.000   68.08   28.47    0.53   27.94    0.00    0.00   0.606   0.459   0.393   0.387   0.290   0.171   0.011
 2014 297    17  14.81  28.60  16.80  3.635  0.211  3.424  3.635  0.211  3.424  0.000  0.000   71.72   32.11    0.75   31.36    0.00    0.00   0.916   0.660   0.564   0.563   0.431   0.289   0.021
 2014 298    18  18.35  28.40  16.80  4.374  0.310  4.064  3.861  0.310  3.551  0.000  0.000   76.09   35.97    1.06   34.91    0.00    0.00   0.880   0.685   0.593   0.596   0.459   0.338   0.031
 2014 299    19  19.00  31.20  16.80  4.589  0.388  4.200  3.739  0.388  3.351  0.000  0.000   80.68   39.71    1.44   38.26    0.00    0.00   0.755   0.643   0.574   0.585   0.453   0.342   0.039
 2014 300    20  17.65  29.50  17.30  4.116  0.416  3.699  3.953  0.416  3.537  0.000  0.000   84.80   43.66    1.86   41.80    0.00    0.00   0.952   0.660   0.567   0.574   0.447   0.338   0.042
 2014 301    21  21.28  30.60  16.70  5.382  0.635  4.746  4.251  0.635  3.616  0.000  0.000   90.18   47.91    2.50   45.42    0.00    0.00   1.024   0.689   0.565   0.563   0.440   0.334   0.064
 2014 302    22  21.85  31.90  17.30  5.403  0.739  4.662  1.371  0.739  0.632  0.000  0.000   95.58   49.28    3.23   46.05    0.00    0.00   0.532   0.067   0.019   0.009   0.004   0.002   0.074
 2014 303    23   7.75  25.10  18.20  1.758  0.279  1.479  1.758  0.279  1.479  0.000  0.000   97.34   51.04    3.51   47.53    0.00    0.00   0.476   0.288   0.219   0.212   0.162   0.122   0.028
 2014 304    24  17.04  29.40  16.90  4.581  0.807  3.773  4.580  0.807  3.773  0.000  0.000  101.92   55.62    4.32   51.30    0.00    0.00   1.206   0.757   0.576   0.536   0.399   0.298   0.081
 2014 305    25  13.66  28.60  16.30  3.353  0.663  2.689  3.352  0.663  2.689  0.000  0.000  105.27   58.97    4.98   53.99    0.00    0.00   0.792   0.526   0.427   0.408   0.306   0.231   0.066
 2014 306    26  14.71  28.80  16.90  3.584  0.785  2.799  3.584  0.785  2.799  0.000  0.000  108.86   62.56    5.77   56.79    0.00    0.00   0.933   0.529   0.415   0.397   0.298   0.227   0.078
 2014 307    27  11.32  23.10  16.70  2.759  0.677  2.081  2.758  0.677  2.081  0.000  0.000  111.62   65.31    6.44   58.87    0.00    0.00   0.632   0.407   0.324   0.308   0.232   0.177   0.068
 2014 308    28  19.79  30.20  17.10  4.938  1.316  3.621  4.936  1.316  3.621  0.000  0.000  116.55   70.25    7.76   62.49    0.00    0.00   1.065   0.699   0.569   0.550   0.417   0.320   0.132
 2014 309    29  20.55  31.10  16.70  5.075  1.505  3.567  5.072  1.505  3.567  0.000  0.000  121.63   75.32    9.27   66.06    0.00    0.00   0.939   0.687   0.580   0.578   0.442   0.341   0.151
 2014 310    30  14.81  29.10  18.90  3.526  1.159  2.365  3.524  1.159  2.365  0.000  0.000  125.15   78.85   10.42   68.42    0.00    0.00   0.558   0.454   0.394   0.404   0.313   0.242   0.116
 2014 311    31   9.91  27.80  17.20  2.266  0.816  1.449  2.265  0.816  1.449  0.000  0.000  127.42   81.11   11.24   69.87    0.00    0.00   0.466   0.265   0.213   0.214   0.164   0.127   0.082
 2014 312    32  18.10  27.80  15.90  4.537  1.758  2.778  4.535  1.758  2.778  0.000  0.000  131.96   85.65   13.00   72.65    0.00    0.00   0.909   0.537   0.410   0.395   0.296   0.229   0.176
 2014 313    33  20.86  29.90  16.70  5.099  2.127  2.969  5.096  2.127  2.969  0.000  0.000  137.06   90.74   15.13   75.62    0.00    0.00   0.819   0.574   0.473   0.471   0.356   0.276   0.213
 2014 314    34  11.47  28.90  16.60  2.678  1.207  1.470  2.677  1.207  1.470  0.000  0.000  139.73   93.42   16.33   77.09    0.00    0.00   0.475   0.288   0.217   0.209   0.158   0.122   0.121
 2014 315    35  12.19  24.90  16.70  2.913  1.404  1.508  2.912  1.404  1.508  0.000  0.000  142.65   96.33   17.74   78.60    0.00    0.00   0.551   0.299   0.212   0.193   0.144   0.109   0.140
 2014 316    36  17.65  27.70  16.20  4.314  2.190  2.122  4.312  2.190  2.122  0.000  0.000  146.96  100.65   19.93   80.72    0.00    0.00   0.758   0.420   0.306   0.277   0.205   0.156   0.219
 2014 317    37  13.28  25.80  17.30  3.175  1.701  1.472  3.173  1.701  1.472  0.000  0.000  150.14  103.82   21.63   82.19    0.00    0.00   0.480   0.287   0.224   0.207   0.155   0.118   0.170
 2014 318    38  12.01  25.20  16.70  2.772  1.570  1.199  2.770  1.570  1.199  0.000  0.000  152.91  106.59   23.20   83.39    0.00    0.00   0.410   0.228   0.176   0.165   0.124   0.096   0.157
 2014 319    39  11.52  27.30  17.40  2.783  1.654  1.127  2.781  1.654  1.127  0.000  0.000  155.69  109.37   24.85   84.52    0.00    0.00   0.348   0.218   0.174   0.165   0.125   0.097   0.165
 2014 320    40  13.91  27.20  16.30  3.223  2.006  1.213  3.219  2.006  1.213  0.000  0.000  158.91  112.59   26.86   85.73    0.00    0.00   0.335   0.234   0.194   0.191   0.146   0.113   0.201
 2014 321    41  20.30  27.90  15.80  4.628  3.000  1.623  4.623  3.000  1.623  0.000  0.000  163.54  117.21   29.86   87.35    0.00    0.00   0.421   0.313   0.265   0.266   0.202   0.156   0.300
 2014 322    42  11.36  28.10  17.40  2.602  1.750  0.850  2.600  1.750  0.850  0.000  0.000  166.14  119.81   31.61   88.20    0.00    0.00   0.250   0.159   0.131   0.132   0.100   0.078   0.175
 2014 323    43   8.05  24.60  18.20  1.820  1.269  0.552  1.820  1.269  0.552  0.000  0.000  167.96  121.63   32.88   88.75    0.00    0.00   0.163   0.106   0.085   0.084   0.063   0.050   0.127
 2014 324    44  11.06  25.10  16.10  2.445  1.742  0.702  2.445  1.742  0.702  0.000  0.000  170.41  124.08   34.62   89.46    0.00    0.00   0.229   0.133   0.104   0.102   0.076   0.059   0.174
 2014 325    45  12.84  25.70  16.30  2.910  2.124  0.784  2.908  2.124  0.784  0.000  0.000  173.32  126.98   36.74   90.24    0.00    0.00   0.235   0.153   0.121   0.117   0.089   0.067   0.212
 2014 326    46  19.70  28.60  16.50  4.542  3.395  1.144  4.539  3.395  1.144  0.000  0.000  177.86  131.52   40.14   91.38    0.00    0.00   0.310   0.221   0.183   0.184   0.140   0.107   0.339
 2014 327    47  14.76  28.30  17.00  3.370  2.579  0.788  3.367  2.579  0.788  0.000  0.000  181.23  134.89   42.72   92.17    0.00    0.00   0.205   0.151   0.125   0.130   0.100   0.077   0.258
 2014 328    48  20.29  29.40  16.40  4.654  3.639  1.009  4.277  3.639  0.638  0.000  0.000  185.88  139.17   46.36   92.81    0.00    0.00   0.540   0.065   0.019   0.009   0.004   0.002   0.364
 2014 329    49  16.11  31.60  17.70  3.808  3.039  0.765  3.805  3.039  0.765  0.000  0.000  189.69  142.97   49.40   93.58    0.00    0.00   0.219   0.144   0.111   0.122   0.095   0.074   0.304
 2014 330    50  11.33  24.80  16.60  2.484  2.022  0.458  2.480  2.022  0.458  0.000  0.000  192.18  145.45   51.42   94.03    0.00    0.00   0.136   0.090   0.063   0.070   0.056   0.044   0.202
 2014 331    51   9.92  25.30  15.70  2.161  1.783  0.374  2.158  1.783  0.374  0.000  0.000  194.34  147.61   53.20   94.41    0.00    0.00   0.106   0.075   0.052   0.058   0.046   0.036   0.178
 2014 332    52  13.44  27.40  17.60  3.037  2.538  0.498  3.036  2.538  0.498  0.000  0.000  197.37  150.64   55.74   94.91    0.00    0.00   0.137   0.101   0.068   0.079   0.063   0.050   0.254
 2014 333    53  14.53  27.40  16.40  3.245  2.743  0.496  3.239  2.743  0.496  0.000  0.000  200.62  153.88   58.48   95.40    0.00    0.00   0.164   0.106   0.067   0.067   0.051   0.040   0.274
 2014 334    54   7.78  24.60  17.60  1.729  1.482  0.246  1.728  1.482  0.246  0.000  0.000  202.35  155.61   59.96   95.65    0.00    0.00   0.076   0.051   0.037   0.035   0.026   0.020   0.148
 2014 335    55  19.59  29.50  16.70  4.520  3.894  0.619  4.513  3.894  0.619  0.000  0.000  206.87  160.12   63.86   96.27    0.00    0.00   0.171   0.123   0.097   0.097   0.074   0.057   0.389
 2014 336    56  12.32  26.60  18.30  2.767  2.411  0.350  2.761  2.411  0.350  0.000  0.000  209.64  162.89   66.27   96.62    0.00    0.00   0.092   0.069   0.055   0.057   0.044   0.034   0.241
 2014 337    57   8.33  24.30  17.40  1.805  1.588  0.216  1.804  1.588  0.216  0.000  0.000  211.44  164.69   67.86   96.83    0.00    0.00   0.067   0.041   0.032   0.032   0.025   0.019   0.159
 2014 338    58   9.78  24.90  17.70  2.160  1.914  0.245  2.159  1.914  0.245  0.000  0.000  213.60  166.85   69.77   97.08    0.00    0.00   0.078   0.048   0.037   0.036   0.027   0.021   0.191
 2014 339    59  20.89  27.60  17.10  4.717  4.202  0.511  4.713  4.202  0.511  0.000  0.000  218.32  171.56   73.97   97.59    0.00    0.00   0.147   0.100   0.081   0.079   0.058   0.045   0.420
 2014 340    60  22.59  31.10  16.70  5.267  4.740  0.523  5.263  4.740  0.523  0.000  0.000  223.58  176.82   78.71   98.11    0.00    0.00   0.138   0.102   0.084   0.085   0.064   0.049   0.474
 2014 341    61  19.49  30.80  16.70  4.517  4.098  0.413  4.511  4.098  0.413  0.000  0.000  228.10  181.34   82.81   98.52    0.00    0.00   0.348   0.043   0.012   0.006   0.002   0.001   0.410
 2014 342    62  21.76  30.80  17.80  5.076  4.632  0.434  5.066  4.632  0.434  0.000  0.000  233.18  186.40   87.44   98.96    0.00    0.00   0.361   0.048   0.014   0.007   0.003   0.002   0.463
 2014 343    63  19.84  29.00  17.40  4.515  4.145  0.362  4.507  4.145  0.362  0.000  0.000  237.69  190.91   91.59   99.32    0.00    0.00   0.309   0.035   0.010   0.005   0.002   0.001   0.415
 2014 344    64  11.32  24.70  17.50  2.463  2.274  0.187  2.461  2.274  0.187  0.000  0.000  240.16  193.37   93.86   99.51    0.00    0.00   0.063   0.033   0.022   0.029   0.023   0.018   0.227
 2014 345    65  19.20  28.80  16.70  4.367  4.042  0.320  4.363  4.042  0.320  0.000  0.000  244.52  197.73   97.90   99.83    0.00    0.00   0.102   0.064   0.037   0.049   0.038   0.030   0.404
 2014 346    66  13.45  28.00  18.20  3.056  2.840  0.214  3.054  2.840  0.214  0.000  0.000  247.58  200.79  100.74  100.04    0.00    0.00   0.063   0.044   0.026   0.034   0.027   0.021   0.284
 2014 347    67  22.10  31.80  16.90  5.181  4.825  0.350  5.175  4.825  0.350  0.000  0.000  252.76  205.96  105.57  100.39    0.00    0.00   0.300   0.035   0.007   0.004   0.002   0.001   0.483
 2014 348    68  17.47  29.50  18.20  4.025  3.760  0.260  4.020  3.760  0.260  0.000  0.000  256.79  209.98  109.33  100.65    0.00    0.00   0.220   0.027   0.006   0.004   0.002   0.001   0.376
 2014 349    69  18.03  29.50  17.30  4.122  3.859  0.257  4.116  3.859  0.257  0.000  0.000  260.91  214.10  113.19  100.91    0.00    0.00   0.214   0.028   0.007   0.004   0.002   0.001   0.386
 2014 350    70  14.29  28.50  17.20  3.226  3.024  0.196  3.219  3.024  0.196  0.000  0.000  264.13  217.32  116.21  101.11    0.00    0.00   0.162   0.022   0.006   0.004   0.002   0.001   0.302
 2014 351    71  15.25  29.70  17.40  3.494  3.277  0.208  3.485  3.277  0.208  0.000  0.000  267.63  220.80  119.49  101.31    0.00    0.00   0.173   0.022   0.006   0.004   0.002   0.001   0.328
 2014 352    72  14.92  28.40  16.90  3.356  3.153  0.196  3.349  3.153  0.196  0.000  0.000  270.98  224.15  122.64  101.51    0.00    0.00   0.164   0.021   0.006   0.003   0.002   0.001   0.315
 2014 353    73  19.81  30.30  15.90  4.518  4.250  0.260  4.510  4.250  0.260  0.000  0.000  275.50  228.66  126.89  101.77    0.00    0.00   0.215   0.028   0.008   0.005   0.002   0.001   0.425
 2014 354    74  17.56  29.40  17.10  3.999  3.762  0.227  3.989  3.762  0.227  0.000  0.000  279.50  232.65  130.65  102.00    0.00    0.00   0.200   0.017   0.005   0.003   0.001   0.001   0.376
 2014 355    75  17.84  28.70  17.10  4.049  3.816  0.226  4.042  3.816  0.226  0.000  0.000  283.55  236.69  134.47  102.22    0.00    0.00   0.084   0.036   0.026   0.032   0.026   0.022   0.382
 2014 356    76  12.77  28.60  18.70  2.924  2.760  0.161  2.921  2.760  0.161  0.000  0.000  286.47  239.61  137.23  102.38    0.00    0.00   0.143   0.012   0.003   0.002   0.001   0.000   0.276
 2014 357    77  12.98  28.40  16.80  2.920  2.757  0.160  2.917  2.757  0.160  0.000  0.000  289.39  242.53  139.98  102.54    0.00    0.00   0.138   0.015   0.004   0.002   0.001   0.001   0.276
 2014 358    78  11.02  28.20  18.10  2.496  2.352  0.139  2.491  2.352  0.139  0.000  0.000  291.89  245.02  142.34  102.68    0.00    0.00   0.117   0.014   0.004   0.002   0.001   0.001   0.235
 2014 359    79   5.87  25.20  17.80  1.281  1.207  0.073  1.280  1.207  0.073  0.000  0.000  293.17  246.30  143.54  102.76    0.00    0.00   0.063   0.006   0.002   0.001   0.000   0.000   0.121
 2014 360    80  12.06  29.60  17.10  2.757  2.595  0.159  2.754  2.595  0.159  0.000  0.000  295.93  249.05  146.14  102.91    0.00    0.00   0.140   0.012   0.003   0.002   0.001   0.000   0.260
 2014 361    81  20.78  31.30  17.40  4.844  4.550  0.281  3.759  3.477  0.281  0.000  0.000  300.77  252.81  149.62  103.20    0.00    0.00   0.236   0.030   0.008   0.005   0.002   0.001   0.348
 2014 362    82  16.08  30.60  17.90  3.731  3.499  0.224  2.594  2.370  0.224  0.000  0.000  304.50  255.41  151.99  103.42    0.00    0.00   0.185   0.025   0.007   0.004   0.002   0.001   0.237
 2014 363    83  17.36  30.40  17.20  3.997  3.738  0.251  2.054  1.803  0.251  0.000  0.000  308.50  257.46  153.79  103.67    0.00    0.00   0.206   0.029   0.008   0.005   0.002   0.001   0.180
 2014 364    84  12.90  30.10  18.30  2.983  2.776  0.201  1.682  1.481  0.201  0.000  0.000  311.48  259.14  155.27  103.87    0.00    0.00   0.163   0.024   0.007   0.004   0.002   0.001   0.148
 2014 365    85  16.75  30.30  18.20  3.878  3.593  0.279  1.488  1.259  0.229  0.000  0.000  315.36  260.63  156.53  104.10    0.00    0.00   0.186   0.028   0.008   0.004   0.002   0.001   0.126
 2015 001    86  15.30  29.30  18.30  3.505  3.225  0.274  1.315  1.094  0.221  0.000  0.000  318.86  261.95  157.62  104.32    0.00    0.00   0.179   0.027   0.008   0.004   0.002   0.001   0.109
 2015 002    87  19.60  31.30  17.30  4.555  4.157  0.388  1.082  0.878  0.204  0.000  0.000  323.42  263.03  158.50  104.53    0.00    0.00   0.163   0.026   0.008   0.004   0.002   0.001   0.088
 2015 003    88  17.84  31.80  17.70  4.178  3.779  0.391  0.852  0.662  0.190  0.000  0.000  327.60  263.88  159.16  104.72    0.00    0.00   0.149   0.026   0.008   0.004   0.002   0.001   0.066
 2015 004    89  17.73  31.30  16.80  4.100  3.669  0.423  0.897  0.600  0.296  0.000  0.000  331.70  264.78  159.76  105.01    0.00    0.00   0.256   0.026   0.008   0.004   0.002   0.001   0.060
 2015 005    90  16.75  31.10  17.40  3.902  3.453  0.443  2.288  1.894  0.393  0.000  0.000  335.60  267.06  161.66  105.41    0.00    0.00   0.353   0.025   0.008   0.004   0.002   0.001   0.189
 2015 006    91   7.35  25.90  19.40  1.633  1.437  0.194  0.715  0.521  0.194  0.000  0.000  337.23  267.78  162.18  105.60    0.00    0.00   0.163   0.020   0.006   0.003   0.001   0.001   0.052
 2015 007    92  15.95  30.20  17.40  3.662  3.190  0.465  0.717  0.483  0.234  0.000  0.000  340.89  268.50  162.66  105.83    0.00    0.00   0.195   0.025   0.008   0.004   0.002   0.001   0.048
 2015 008    93  16.45  30.40  17.40  3.782  3.252  0.525  0.667  0.449  0.218  0.000  0.000  344.68  269.16  163.11  106.05    0.00    0.00   0.178   0.025   0.008   0.004   0.002   0.001   0.045
 2015 009    94  12.24  30.10  17.80  2.810  2.381  0.424  0.622  0.420  0.202  0.000  0.000  347.49  269.79  163.53  106.25    0.00    0.00   0.163   0.025   0.008   0.004   0.002   0.001   0.042
 2015 010    95  17.05  31.80  18.40  4.001  3.338  0.653  0.844  0.395  0.449  0.000  0.000  351.49  270.63  163.93  106.70    0.00    0.00   0.407   0.028   0.008   0.004   0.002   0.001   0.039
 2015 011    96   9.57  26.80  17.50  2.153  1.769  0.381  2.150  1.769  0.381  0.000  0.000  353.64  272.78  165.70  107.08    0.00    0.00   0.196   0.071   0.030   0.034   0.028   0.022   0.177
 2015 012    97  11.75  28.10  17.10  2.713  2.232  0.480  2.712  2.232  0.480  0.000  0.000  356.35  275.49  167.93  107.56    0.00    0.00   0.224   0.118   0.041   0.039   0.032   0.025   0.223
 2015 013    98  12.47  29.30  19.20  2.941  2.418  0.520  2.939  2.418  0.520  0.000  0.000  359.30  278.43  170.35  108.08    0.00    0.00   0.206   0.136   0.061   0.048   0.038   0.031   0.242
 2015 014    99  17.11  30.80  18.20  4.036  3.317  0.714  4.031  3.317  0.714  0.000  0.000  363.33  282.46  173.66  108.80    0.00    0.00   0.266   0.178   0.096   0.071   0.057   0.046   0.332
 2015 015   100  15.40  31.60  17.20  3.621  2.978  0.640  3.505  2.978  0.527  0.000  0.000  366.95  285.97  176.64  109.33    0.00    0.00   0.459   0.051   0.011   0.004   0.002   0.001   0.298
 2015 016   101  17.19  31.10  19.20  4.058  3.334  0.718  3.734  3.334  0.400  0.000  0.000  371.01  289.70  179.98  109.72    0.00    0.00   0.342   0.041   0.011   0.004   0.002   0.001   0.333
 2015 017   102  18.64  31.80  17.70  4.367  3.588  0.772  1.800  1.511  0.289  0.000  0.000  375.38  291.50  181.49  110.01    0.00    0.00   0.239   0.034   0.010   0.004   0.002   0.001   0.151
 2015 018   103  16.78  31.40  18.80  3.939  3.200  0.732  1.334  1.042  0.291  0.000  0.000  379.32  292.83  182.53  110.31    0.00    0.00   0.245   0.031   0.009   0.004   0.002   0.001   0.104
 2015 019   104  16.47  31.10  17.40  3.822  3.065  0.752  1.240  0.942  0.298  0.000  0.000  383.14  294.07  183.47  110.60    0.00    0.00   0.254   0.030   0.009   0.004   0.002   0.001   0.094
 2015 020   105   9.05  26.40  16.90  1.980  1.566  0.412  1.163  0.751  0.412  0.000  0.000  385.12  295.24  184.22  111.02    0.00    0.00   0.177   0.092   0.051   0.038   0.030   0.024   0.075
 2015 021   106   9.32  26.40  18.40  2.161  1.690  0.469  2.159  1.690  0.469  0.000  0.000  387.28  297.40  185.91  111.48    0.00    0.00   0.195   0.116   0.071   0.035   0.029   0.023   0.169
 2015 022   107   9.41  26.70  17.50  2.133  1.670  0.463  2.133  1.670  0.463  0.000  0.000  389.41  299.53  187.58  111.95    0.00    0.00   0.194   0.107   0.080   0.034   0.026   0.021   0.167
 2015 023   108  17.79  31.70  15.90  4.259  3.332  0.923  4.255  3.332  0.923  0.000  0.000  393.67  303.78  190.91  112.87    0.00    0.00   0.349   0.227   0.174   0.075   0.054   0.044   0.333
 2015 024   109   9.75  27.80  16.30  2.209  1.728  0.479  2.207  1.728  0.479  0.000  0.000  395.88  305.99  192.64  113.35    0.00    0.00   0.175   0.115   0.093   0.043   0.030   0.024   0.173
 2015 025   110   9.18  25.60  14.90  2.005  1.569  0.435  2.004  1.569  0.435  0.000  0.000  397.89  308.00  194.21  113.78    0.00    0.00   0.154   0.105   0.086   0.040   0.028   0.022   0.157
 2015 026   111  17.10  30.30  15.60  3.954  3.094  0.857  3.951  3.094  0.857  0.000  0.000  401.84  311.95  197.31  114.64    0.00    0.00   0.291   0.211   0.172   0.081   0.056   0.045   0.309
 2015 027   112  21.77  32.10  16.00  5.128  4.010  1.112  4.622  4.010  0.612  0.000  0.000  406.97  316.57  201.32  115.25    0.00    0.00   0.523   0.064   0.018   0.004   0.002   0.001   0.401
 2015 028   113  20.89  32.80  19.20  5.046  3.945  1.094  4.446  3.945  0.501  0.000  0.000  412.01  321.01  205.26  115.75    0.00    0.00   0.422   0.057   0.016   0.004   0.002   0.001   0.394
 2015 029   114  16.07  32.10  17.50  3.787  2.963  0.821  3.363  2.963  0.401  0.000  0.000  415.80  324.38  208.22  116.16    0.00    0.00   0.330   0.050   0.014   0.004   0.002   0.001   0.296
 2015 030   115  15.43  31.30  18.40  3.620  2.737  0.877  3.089  2.737  0.352  0.000  0.000  419.42  327.47  210.96  116.51    0.00    0.00   0.291   0.042   0.012   0.004   0.002   0.001   0.274
 2015 031   116  18.73  31.40  15.80  4.305  3.127  1.173  2.831  2.522  0.308  0.000  0.000  423.73  330.30  213.48  116.82    0.00    0.00   0.254   0.037   0.011   0.004   0.002   0.001   0.252
 2015 032   117  20.26  32.90  16.90  4.756  3.297  1.454  1.446  1.177  0.269  0.000  0.000  428.48  331.74  214.66  117.08    0.00    0.00   0.221   0.032   0.010   0.004   0.002   0.001   0.118
 2015 033   118  18.46  32.80  18.80  4.382  3.036  1.340  1.138  0.890  0.248  0.000  0.000  432.86  332.88  215.55  117.33    0.00    0.00   0.202   0.030   0.009   0.004   0.002   0.001   0.089
 2015 034   119  15.93  32.70  18.40  3.761  2.606  1.150  0.967  0.738  0.229  0.000  0.000  436.63  333.85  216.29  117.56    0.00    0.00   0.185   0.029   0.009   0.004   0.002   0.001   0.074
 2015 035   120   9.56  26.80  17.60  2.099  1.454  0.642  0.861  0.641  0.220  0.000  0.000  438.73  334.71  216.93  117.78    0.00    0.00   0.177   0.028   0.008   0.004   0.002   0.001   0.064
 2015 036   121  18.91  32.50  16.30  4.383  3.036  1.340  0.784  0.572  0.212  0.000  0.000  443.11  335.49  217.50  117.99    0.00    0.00   0.171   0.027   0.008   0.004   0.002   0.001   0.057
 2015 037   122  18.96  32.80  17.60  4.446  3.079  1.359  0.682  0.486  0.197  0.000  0.000  447.55  336.17  217.99  118.19    0.00    0.00   0.156   0.026   0.008   0.004   0.002   0.001   0.049
 2015 038   123  20.33  33.60  17.00  4.782  3.313  1.462  0.522  0.340  0.182  0.000  0.000  452.34  336.70  218.32  118.37    0.00    0.00   0.143   0.026   0.008   0.004   0.002   0.001   0.034
 2015 039   124  13.35  32.60  18.80  3.144  2.176  0.961  0.463  0.241  0.221  0.000  0.000  455.48  337.16  218.57  118.59    0.00    0.00   0.182   0.026   0.008   0.004   0.002   0.001   0.024
 2015 040   125  18.82  33.80  16.30  4.441  3.076  1.358  0.494  0.237  0.257  0.000  0.000  459.92  337.65  218.80  118.85    0.00    0.00   0.217   0.025   0.008   0.004   0.002   0.001   0.024
 2015 041   126  12.54  28.80  16.90  2.809  1.944  0.859  0.594  0.237  0.357  0.000  0.000  462.73  338.25  219.04  119.21    0.00    0.00   0.318   0.025   0.008   0.004   0.002   0.001   0.024
 2015 042   127  17.70  32.30  16.80  4.188  2.901  1.281  2.513  2.064  0.449  0.000  0.000  466.92  340.76  221.10  119.66    0.00    0.00   0.410   0.025   0.008   0.004   0.001   0.001   0.206
 2015 043   128  18.28  32.80  17.20  4.292  2.973  1.312  0.481  0.234  0.247  0.000  0.000  471.21  341.24  221.34  119.90    0.00    0.00   0.209   0.025   0.008   0.004   0.001   0.001   0.023
 2015 044   129  19.69  33.20  16.80  4.623  3.200  1.414  0.463  0.234  0.229  0.000  0.000  475.83  341.70  221.57  120.13    0.00    0.00   0.191   0.025   0.008   0.004   0.001   0.001   0.023
 2015 045   130  15.02  32.00  17.80  3.502  2.424  1.071  0.463  0.233  0.230  0.000  0.000  479.33  342.17  221.80  120.36    0.00    0.00   0.192   0.025   0.008   0.004   0.001   0.001   0.023
 2015 046   131  14.91  29.80  16.30  3.360  2.328  1.028  0.539  0.232  0.307  0.000  0.000  482.69  342.71  222.04  120.67    0.00    0.00   0.269   0.025   0.008   0.004   0.001   0.001   0.023
 2015 047   132  15.49  30.40  17.70  3.588  2.488  1.097  1.325  0.956  0.369  0.000  0.000  486.28  344.03  222.99  121.04    0.00    0.00   0.331   0.025   0.008   0.004   0.001   0.001   0.096
 2015 048   133   6.94  29.30  16.30  1.562  1.084  0.478  0.785  0.308  0.478  0.000  0.000  487.85  344.82  223.30  121.52    0.00    0.00   0.227   0.098   0.046   0.045   0.034   0.027   0.031
 2015 049   134  12.99  29.00  17.00  3.126  2.168  0.956  3.124  2.168  0.956  0.000  0.000  490.97  347.94  225.47  122.47    0.00    0.00   0.434   0.241   0.102   0.076   0.057   0.046   0.217
 2015 050   135  22.02  32.60  17.60  5.370  3.722  1.642  5.351  3.709  1.642  0.000  0.000  496.34  353.29  229.18  124.11    0.00    0.00   0.651   0.419   0.232   0.144   0.108   0.087   0.371
 2015 051   136   9.15  23.90  17.60  1.988  1.376  0.608  1.915  1.376  0.540  0.000  0.000  498.33  355.21  230.55  124.65    0.00    0.00   0.469   0.053   0.012   0.003   0.001   0.001   0.138
 2015 052   137  11.76  28.10  16.00  2.635  1.827  0.806  2.321  1.827  0.494  0.000  0.000  500.97  357.53  232.38  125.15    0.00    0.00   0.428   0.049   0.011   0.003   0.001   0.001   0.183
 2015 053   138  18.48  31.10  16.90  4.308  2.985  1.317  3.435  2.985  0.449  0.000  0.000  505.27  360.96  235.37  125.60    0.00    0.00   0.390   0.043   0.011   0.003   0.001   0.001   0.299
 2015 054   139  11.31  31.60  16.70  2.622  1.818  0.802  2.368  1.818  0.550  0.000  0.000  507.90  363.33  237.18  126.15    0.00    0.00   0.491   0.043   0.010   0.003   0.001   0.001   0.182
 2015 055   140   9.03  24.10  16.40  1.979  1.371  0.605  1.976  1.371  0.605  0.000  0.000  509.87  365.31  238.55  126.75    0.00    0.00   0.274   0.123   0.073   0.058   0.043   0.035   0.137
 2015 056   141  13.62  29.30  16.20  3.135  2.173  0.959  2.794  2.173  0.621  0.000  0.000  513.01  368.10  240.73  127.37    0.00    0.00   0.560   0.046   0.009   0.003   0.001   0.001   0.217
 2015 057   142  18.36  30.50  15.30  4.219  2.926  1.290  3.431  2.926  0.505  0.000  0.000  517.23  371.53  243.65  127.88    0.00    0.00   0.450   0.041   0.009   0.003   0.001   0.001   0.293
 2015 058   143  20.82  32.90  16.30  4.877  3.380  1.491  1.809  1.475  0.334  0.000  0.000  522.11  373.34  245.13  128.21    0.00    0.00   0.282   0.037   0.009   0.003   0.001   0.001   0.147
 2015 059   144   4.19  22.40  16.80  0.876  0.607  0.268  0.874  0.607  0.268  0.000  0.000  522.98  374.21  245.73  128.48    0.00    0.00   0.236   0.022   0.006   0.002   0.001   0.001   0.061
 2015 060   145   9.21  27.20  15.90  2.039  1.414  0.624  1.843  1.414  0.429  0.000  0.000  525.02  376.06  247.15  128.91    0.00    0.00   0.384   0.031   0.009   0.003   0.001   0.001   0.141
 2015 061   146  15.74  30.90  15.80  3.594  2.492  1.099  0.906  0.613  0.294  0.000  0.000  528.61  376.96  247.76  129.20    0.00    0.00   0.249   0.030   0.008   0.003   0.001   0.001   0.061
 2015 062   147  12.30  28.70  17.80  2.774  1.922  0.848  0.645  0.385  0.260  0.000  0.000  531.39  377.61  248.15  129.46    0.00    0.00   0.217   0.029   0.008   0.003   0.001   0.001   0.039
