*PLANT N OUTPUT FILE

*DSSAT Cropping System Model Ver. 4.7.2.000 -release      OCT 15, 2021; 17:59:35
                                                                                
*RUN   1        :             CSM335_date_1 MZCER047 ITSA1301    1              
 MODEL          : MZCER047 - Maize                                              
 EXPERIMENT     : ITSA1301 SG CALIBRATION SETUP OF SORGHUM SOWING DATES         
 DATA PATH      :                                                               
 TREATMENT  1   :             CSM335_date_1 MZCER047                            
  
@YEAR DOY   DAS   DAP   CNAD   GNAD   VNAD   GN%D   VN%D   NUPC   LNAD   SNAD   LN%D   SN%D   RN%D   SNN0C   SNN1C
 2014 282     2     0    0.0    0.0    0.0   0.00   0.00    0.0    0.0    0.0    0.0   0.00   0.00    0.00    0.00
 2014 283     3     1    0.0    0.0    0.0   0.00   0.00    0.0    0.0    0.0    0.0   0.00   0.00    0.00    0.00
 2014 284     4     2    0.0    0.0    0.0   0.00   0.00    0.0    0.0    0.0    0.0   0.00   0.00    0.00    0.00
 2014 285     5     3    0.0    0.0    0.0   0.00   0.00    0.0    0.0    0.0    0.0   0.00   0.00    0.00    0.00
 2014 286     6     4    0.0    0.0    0.0   0.00   0.00    0.0    0.0    0.0    0.0   0.00   0.00    0.00    0.00
 2014 287     7     5    1.1    0.0    1.1   0.00   4.40    0.0    0.5    0.5    4.4   4.40   2.20    0.00    0.00
 2014 288     8     6    1.1    0.0    1.1   0.00   4.40    0.0    0.5    0.5    4.4   4.40   2.16    0.00    0.00
 2014 289     9     7    1.1    0.0    1.1   0.00   4.40    0.0    0.5    0.5    4.4   4.40   2.06    0.00    0.00
 2014 290    10     8    1.1    0.0    1.1   0.00   4.40    0.0    0.5    0.5    4.4   4.40   1.91    0.00    0.00
 2014 291    11     9    1.1    0.0    1.1   0.00   4.40    0.0    0.5    0.5    4.4   4.40   1.76    0.00    0.00
 2014 292    12    10    1.1    0.0    1.1   0.00   4.40    0.0    0.5    0.5    4.4   4.40   1.65    0.00    0.00
 2014 293    13    11    1.1    0.0    1.1   0.00   4.40    0.0    0.5    0.5    4.4   4.40   1.55    0.00    0.00
 2014 294    14    12    1.1    0.0    1.1   0.00   3.84    0.0    0.6    0.5    3.8   3.84   1.45    0.00    0.00
 2014 295    15    13    1.2    0.0    1.2   0.00   3.40    0.1    0.8    0.4    3.4   3.40   1.12    0.00    0.00
 2014 296    16    14    1.5    0.0    1.5   0.00   3.48    0.4    1.1    0.4    3.5   3.48   1.11    0.00    0.00
 2014 297    17    15    1.8    0.0    1.8   0.00   3.46    0.7    1.4    0.4    3.5   3.46   1.17    0.00    0.00
 2014 298    18    16    2.2    0.0    2.2   0.00   3.46    1.2    1.7    0.4    3.5   3.46   1.26    0.00    0.00
 2014 299    19    17    2.6    0.0    2.6   0.00   3.40    1.6    2.2    0.4    3.4   3.40   1.25    0.00    0.01
 2014 300    20    18    3.1    0.0    3.1   0.00   3.42    2.2    2.7    0.4    3.4   3.42   1.24    0.00    0.01
 2014 301    21    19    3.7    0.0    3.7   0.00   3.39    3.0    3.2    0.4    3.4   3.39   1.29    0.00    0.01
 2014 302    22    20    4.3    0.0    4.3   0.00   3.35    3.8    3.9    0.4    3.3   3.35   1.28    0.00    0.01
 2014 303    23    21    5.1    0.0    5.1   0.00   3.49    4.5    4.7    0.4    3.5   3.49   1.10    0.00    0.02
 2014 304    24    22    5.8    0.0    5.8   0.00   3.40    5.4    5.4    0.4    3.4   3.40   1.22    0.00    0.02
 2014 305    25    23    6.7    0.0    6.7   0.00   3.42    6.3    6.3    0.4    3.4   3.42   1.17    0.00    0.03
 2014 306    26    24    7.6    0.0    7.6   0.00   3.59    7.5    7.1    0.4    3.6   3.59   1.24    0.00    0.03
 2014 307    27    25    8.2    0.0    8.2   0.00   3.47    8.1    7.8    0.4    3.5   3.47   1.14    0.00    0.04
 2014 308    28    26    9.1    0.0    9.1   0.00   3.28    9.3    8.6    0.4    3.3   3.28   1.24    0.00    0.04
 2014 309    29    27   12.2    0.0   12.2   0.00   3.79   12.8   11.7    0.5    3.8   3.79   1.23    0.00    0.05
 2014 310    30    28   13.7    0.0   13.7   0.00   3.72   14.3   13.3    0.5    3.7   3.72   1.15    0.00    0.06
 2014 311    31    29   15.0    0.0   15.0   0.00   3.61   15.6   14.6    0.5    3.6   3.61   1.10    0.00    0.07
 2014 312    32    30   16.6    0.0   16.6   0.00   3.56   17.8   16.1    0.5    3.6   3.56   1.23    0.00    0.08
 2014 313    33    31   18.6    0.0   18.6   0.00   3.51   20.3   18.1    0.5    3.5   3.51   1.24    0.00    0.09
 2014 314    34    32   20.6    0.0   20.6   0.00   3.48   22.1   20.0    0.5    3.5   3.48   1.11    0.00    0.11
 2014 315    35    33   22.4    0.0   22.4   0.00   3.44   24.2   21.7    0.6    3.4   3.44   1.14    0.00    0.12
 2014 316    36    34   24.5    0.0   24.5   0.00   3.41   26.9   23.7    0.7    3.4   3.41   1.20    0.00    0.14
 2014 317    37    35   27.0    0.0   27.0   0.00   3.37   29.4   26.1    0.9    3.4   3.37   1.12    0.00    0.16
 2014 318    38    36   29.6    0.0   29.6   0.00   3.34   32.1   28.4    1.2    3.3   3.34   1.11    0.00    0.17
 2014 319    39    37   32.4    0.0   32.4   0.00   3.31   35.0   30.9    1.5    3.3   3.31   1.09    0.00    0.19
 2014 320    40    38   35.3    0.0   35.3   0.00   3.27   38.2   33.3    1.9    3.3   3.27   1.13    0.00    0.21
 2014 321    41    39   38.2    0.0   38.2   0.00   3.24   42.1   35.8    2.4    3.2   3.24   1.21    0.00    0.23
 2014 322    42    40   41.4    0.0   41.4   0.00   3.21   44.9   38.3    3.1    3.2   3.21   1.08    0.00    0.26
 2014 323    43    41   43.7    0.0   43.7   0.00   3.17   47.1   40.1    3.6    3.2   3.17   1.08    0.00    0.28
 2014 324    44    42   46.6    0.0   46.6   0.00   3.15   50.3   42.2    4.3    3.1   3.15   1.09    0.00    0.30
 2014 325    45    43   49.6    0.0   49.6   0.00   3.12   53.7   44.5    5.2    3.1   3.12   1.11    0.00    0.33
 2014 326    46    44   53.2    0.0   53.2   0.00   3.08   58.2   47.0    6.2    3.1   3.08   1.18    0.00    0.35
 2014 327    47    45   56.9    0.0   56.9   0.00   3.05   61.8   49.5    7.5    3.0   3.05   1.11    0.00    0.38
 2014 328    48    46   60.9    0.0   60.9   0.00   3.02   66.7   52.0    8.9    3.0   3.02   1.17    0.00    0.41
 2014 329    49    47   65.4    0.0   65.4   0.00   2.98   71.1   54.7   10.7    3.0   2.98   1.10    0.00    0.44
 2014 330    50    48   68.9    0.0   68.9   0.00   2.95   74.5   56.8   12.2    3.0   2.95   1.08    0.00    0.48
 2014 331    51    49   71.9    0.0   71.9   0.00   2.92   77.6   58.4   13.5    2.9   2.92   1.08    0.00    0.51
 2014 332    52    50   76.0    0.0   76.0   0.00   2.89   81.9   60.6   15.4    2.9   2.89   1.08    0.00    0.54
 2014 333    53    51   80.4    0.0   80.4   0.00   2.86   86.4   62.8   17.6    2.9   2.86   1.09    0.00    0.58
 2014 334    54    52   82.5    0.0   82.5   0.00   2.84   88.5   63.7   18.7    2.8   2.84   1.07    0.00    0.61
 2014 335    55    53   87.5    0.0   87.5   0.00   2.81   94.2   66.1   21.4    2.8   2.81   1.12    0.00    0.64
 2014 336    56    54   91.1    0.0   91.1   0.00   2.78   97.6   67.6   23.5    2.8   2.78   1.08    0.00    0.68
 2014 337    57    55   93.3    0.0   93.3   0.00   2.75   99.9   69.1   24.2    2.7   2.75   1.07    0.00    0.72
 2014 338    58    56   96.0    0.0   96.0   0.00   2.72  102.6   70.2   25.8    2.7   2.72   1.08    0.00    0.75
 2014 339    59    57  102.6    0.0  102.6   0.00   2.69  109.5   72.9   29.8    2.7   2.69   1.09    0.00    0.79
 2014 340    60    58  109.5    0.0  109.5   0.00   2.66  116.6   75.2   34.3    2.7   2.66   1.09    0.00    0.83
 2014 341    61    59  114.8    0.0  114.8   0.00   2.62  122.1   76.7   38.2    2.6   2.62   1.09    0.00    0.86
 2014 342    62    60  119.0    0.0  119.0   0.00   2.56  126.5   77.2   41.9    2.6   2.56   1.08    0.00    0.90
 2014 343    63    61  122.3    0.0  122.3   0.00   2.49  129.9   77.3   45.0    2.5   2.49   1.07    0.00    0.94
 2014 344    64    62  124.8    0.0  124.8   0.00   2.46  132.5   77.7   47.2    2.5   2.46   1.07    0.00    0.98
 2014 345    65    63  126.5    0.0  126.5   0.00   2.39  134.3   77.0   49.5    2.4   2.39   1.05    0.00    1.02
 2014 346    66    64  127.7    0.0  127.7   0.00   2.33  135.6   76.5   51.2    2.3   2.33   1.04    0.00    1.06
 2014 347    67    65  128.6    0.0  128.6   0.00   2.26  136.6   75.5   53.0    2.3   2.26   1.00    0.00    1.10
 2014 348    68    66  129.3    0.0  129.3   0.00   2.19  137.4   74.7   54.6    2.2   2.19   0.99    0.00    1.15
 2014 349    69    67  129.9    0.0  129.9   0.00   2.14  138.0   74.1   55.8    2.1   2.14   0.97    0.00    1.19
 2014 350    70    68  130.4    0.0  130.4   0.00   2.09  138.6   73.6   56.8    2.1   2.09   0.96    0.00    1.23
 2014 351    71    69  130.9    0.0  130.9   0.00   2.05  139.2   73.2   57.7    2.1   2.05   0.96    0.00    1.27
 2014 352    72    70  131.3    0.0  131.3   0.00   2.02  139.7   73.0   58.3    2.0   2.02   0.95    0.00    1.31
 2014 353    73    71  131.7    0.0  131.7   0.00   1.99  140.1   73.2   58.5    2.0   1.99   0.91    0.00    1.35
 2014 354    74    72  132.2    0.0  132.2   0.00   1.97  140.7   73.6   58.6    2.0   1.97   0.89    0.00    1.40
 2014 355    75    73  132.6    0.0  132.6   0.00   1.96  141.2   74.1   58.5    2.0   1.96   0.87    0.00    1.44
 2014 356    76    74  133.0    0.0  133.0   0.00   1.94  141.7   74.2   58.8    1.9   1.94   0.87    0.00    1.48
 2014 357    77    75  133.3    0.0  133.3   0.00   1.93  142.1   73.2   60.1    1.9   1.93   0.87    0.00    1.52
 2014 358    78    76  133.6    0.0  133.6   0.00   1.93  142.4   72.4   61.2    1.9   1.93   0.87    0.00    1.57
 2014 359    79    77  133.9    0.0  133.9   0.00   1.94  142.8   71.8   62.1    1.9   1.94   0.88    0.00    1.61
 2014 360    80    78  134.1    0.0  134.1   0.00   1.95  143.1   71.0   63.1    1.9   1.95   0.88    0.00    1.65
 2014 361    81    79  134.2    0.0  134.2   0.00   1.92  143.3   69.2   65.0    1.9   1.92   0.88    0.00    1.70
 2014 362    82    80  134.3    0.0  134.3   0.00   1.91  143.4   67.7   66.6    1.9   1.91   0.88    0.00    1.74
 2014 363    83    81  134.3    0.0  134.3   0.00   1.90  143.5   66.3   68.0    1.9   1.90   0.88    0.00    1.78
 2014 364    84    82  134.3    0.0  134.3   0.00   1.90  143.6   65.1   69.2    1.9   1.90   0.89    0.00    1.83
 2014 365    85    83  134.3    0.0  134.3   0.00   1.90  143.7   63.8   70.5    1.9   1.90   0.90    0.00    1.87
 2015 001    86    84  134.3    0.0  134.3   0.00   1.90  143.7   62.6   71.7    1.9   1.90   0.90    0.00    1.87
 2015 002    87    85  134.3    1.4  132.8   1.88   1.88  143.7   62.0   70.8    1.9   1.88   0.90    0.00    1.87
 2015 003    88    86  134.3    2.8  131.5   1.88   1.87  143.7   61.6   69.9    1.9   1.87   0.91    0.00    1.87
 2015 004    89    87  134.3    4.1  130.1   1.89   1.86  143.7   61.2   69.0    1.9   1.86   0.91    0.00    1.87
 2015 005    90    88  134.3    6.0  128.3   1.87   1.82  143.7   60.1   68.2    1.8   1.82   0.91    0.00    1.87
 2015 006    91    89  134.3    7.6  126.7   1.87   1.81  143.7   59.8   66.9    1.8   1.81   0.91    0.00    1.87
 2015 007    92    90  134.3    8.9  125.3   1.87   1.80  143.7   59.4   65.9    1.8   1.80   0.92    0.00    1.87
 2015 008    93    91  134.3   10.3  124.0   1.87   1.79  143.7   59.1   64.9    1.8   1.79   0.92    0.00    1.87
 2015 009    94    92  134.3   11.6  122.7   1.87   1.78  143.7   58.8   63.8    1.8   1.78   0.93    0.00    1.87
 2015 010    95    93  134.3   12.9  121.4   1.88   1.78  143.7   58.5   62.8    1.8   1.78   0.93    0.00    1.87
 2015 011    96    94  134.3   15.2  119.1   1.85   1.74  143.7   57.5   61.7    1.7   1.74   0.93    0.00    1.87
 2015 012    97    95  134.3   17.4  116.9   1.83   1.71  143.7   56.2   60.6    1.7   1.71   0.93    0.00    1.87
 2015 013    98    96  134.3   19.6  114.6   1.81   1.67  143.7   55.0   59.6    1.7   1.67   0.93    0.00    1.87
 2015 014    99    97  134.3   21.9  112.4   1.80   1.62  143.7   53.5   58.9    1.6   1.62   0.91    0.00    1.87
 2015 015   100    98  134.3   24.1  110.1   1.79   1.58  143.7   52.1   58.0    1.6   1.58   0.89    0.00    1.87
 2015 016   101    99  134.3   26.4  107.9   1.78   1.54  143.7   50.7   57.2    1.5   1.54   0.87    0.00    1.87
 2015 017   102   100  134.3   28.1  106.2   1.79   1.51  143.7   49.8   56.4    1.5   1.51   0.88    0.00    1.87
 2015 018   103   101  134.3   29.6  104.7   1.79   1.49  143.7   49.2   55.5    1.5   1.49   0.88    0.00    1.87
 2015 019   104   102  134.3   31.2  103.1   1.80   1.47  143.7   48.5   54.6    1.5   1.47   0.88    0.00    1.87
 2015 020   105   103  134.3   32.9  101.4   1.80   1.46  143.7   48.0   53.4    1.5   1.46   0.89    0.00    1.87
 2015 021   106   104  134.3   35.1   99.1   1.79   1.43  143.7   47.0   52.2    1.4   1.43   0.89    0.00    1.87
 2015 022   107   105  134.3   37.4   96.9   1.79   1.39  143.7   46.0   50.9    1.4   1.39   0.90    0.00    1.87
 2015 023   108   106  134.3   39.6   94.7   1.78   1.35  143.7   44.6   50.1    1.4   1.35   0.88    0.00    1.87
 2015 024   109   107  134.3   41.9   92.4   1.78   1.32  143.7   43.6   48.8    1.3   1.32   0.88    0.00    1.87
 2015 025   110   108  134.3   44.1   90.2   1.77   1.29  143.7   42.6   47.6    1.3   1.29   0.89    0.00    1.87
 2015 026   111   109  134.3   46.4   87.9   1.77   1.25  143.7   41.2   46.7    1.3   1.25   0.87    0.00    1.87
 2015 027   112   110  134.3   48.6   85.7   1.77   1.21  143.7   40.0   45.7    1.2   1.21   0.85    0.00    1.87
 2015 028   113   111  134.3   50.9   83.4   1.76   1.18  143.7   38.9   44.5    1.2   1.18   0.82    0.00    1.87
 2015 029   114   112  134.3   53.1   81.1   1.76   1.15  143.7   37.8   43.3    1.1   1.15   0.81    0.00    1.87
 2015 030   115   113  134.3   55.4   78.9   1.76   1.12  143.7   36.8   42.1    1.1   1.12   0.80    0.00    1.87
 2015 031   116   114  134.3   57.5   76.8   1.76   1.09  143.7   35.8   41.0    1.1   1.09   0.80    0.00    1.87
 2015 032   117   115  134.3   57.5   76.8   1.76   1.09  143.7   35.8   41.0    1.1   1.09   0.80    0.00    1.87
 2015 033   118   116  134.3   57.5   76.8   1.76   1.09  143.7   35.8   41.0    1.1   1.09   0.80    0.00    1.87
 2015 034   119   117  134.3   57.5   76.8   1.76   1.09  143.7   35.8   41.0    1.1   1.09   0.80    0.00    1.87
 2015 035   120   118  134.3   57.5   76.8   1.76   1.09  143.7   35.8   41.0    1.1   1.09   0.80    0.00    1.87
 2015 036   121   119  134.3   57.5   76.8   1.76   1.09  143.7   35.8   41.0    1.1   1.09   0.80    0.00    1.87
 2015 037   122   120  134.3   57.5   76.8   1.76   1.09  143.7   35.8   41.0    1.1   1.09   0.80    0.00    1.87
 2015 038   123   121  134.3   57.5   76.8   1.76   1.09  143.7   35.8   41.0    1.1   1.09   0.80    0.00    1.87
 2015 039   124   122  134.3   57.5   76.8   1.76   1.09  143.7   35.8   41.0    1.1   1.09   0.80    0.00    1.87
 2015 040   125   123  134.3   57.5   76.8   1.76   1.09  143.7   35.8   41.0    1.1   1.09   0.80    0.00    1.87
 2015 041   126   124  134.3   57.5   76.8   1.76   1.09  143.7   35.8   41.0    1.1   1.09   0.80    0.00    1.87
 2015 042   127   125  134.3   57.5   76.8   1.76   1.09  143.7   35.8   41.0    1.1   1.09   0.80    0.00    1.87
 2015 043   128   126  134.3   57.5   76.8   1.76   1.09  143.7   35.8   41.0    1.1   1.09   0.80    0.00    1.87
 2015 044   129   127  134.3   57.5   76.8   1.76   1.09  143.7   35.8   41.0    1.1   1.09   0.80    0.00    1.87
 2015 045   130   128  134.3   57.5   76.8   1.76   1.09  143.7   35.8   41.0    1.1   1.09   0.80    0.00    1.87
 2015 046   131   129  134.3   57.5   76.8   1.76   1.09  143.7   35.8   41.0    1.1   1.09   0.80    0.00    1.87
 2015 047   132   130  134.3   57.5   76.8   1.76   1.09  143.7   35.8   41.0    1.1   1.09   0.80    0.00    1.87
 2015 048   133   131  134.3   57.5   76.8   1.76   1.09  143.7   35.8   41.0    1.1   1.09   0.80    0.00    1.87
 2015 049   134   132  134.3   57.5   76.8   1.76   1.09  143.7   35.8   41.0    1.1   1.09   0.80    0.00    1.87
 2015 050   135   133  134.3   57.5   76.8   1.76   1.09  143.7   35.8   41.0    1.1   1.09   0.80    0.00    1.87
 2015 051   136   134  134.3   57.5   76.8   1.76   1.09  143.7   35.8   41.0    1.1   1.09   0.80    0.00    1.87
 2015 052   137   135  134.3   57.5   76.8   1.76   1.09  143.7   35.8   41.0    1.1   1.09   0.80    0.00    1.87
 2015 053   138   136  134.3   57.5   76.8   1.76   1.09  143.7   35.8   41.0    1.1   1.09   0.80    0.00    1.87
 2015 054   139   137  134.3   57.5   76.8   1.76   1.09  143.7   35.8   41.0    1.1   1.09   0.80    0.00    1.87
 2015 055   140   138  134.3   57.5   76.8   1.76   1.09  143.7   35.8   41.0    1.1   1.09   0.80    0.00    1.87
 2015 056   141   139  134.3   57.5   76.8   1.76   1.09  143.7   35.8   41.0    1.1   1.09   0.80    0.00    1.87
 2015 057   142   140  134.3   57.5   76.8   1.76   1.09  143.7   35.8   41.0    1.1   1.09   0.80    0.00    1.87
 2015 058   143   141  134.3   57.5   76.8   1.76   1.09  143.7   35.8   41.0    1.1   1.09   0.80    0.00    1.87
 2015 059   144   142  134.3   57.5   76.8   1.76   1.09  143.7   35.8   41.0    1.1   1.09   0.80    0.00    1.87
 2015 060   145   143  134.3   57.5   76.8   1.76   1.09  143.7   35.8   41.0    1.1   1.09   0.80    0.00    1.87
 2015 061   146   144  134.3   57.5   76.8   1.76   1.09  143.7   35.8   41.0    1.1   1.09   0.80    0.00    1.87
 2015 062   147   145  134.3   57.5   76.8   1.76   1.09  143.7   35.8   41.0    1.1   1.09   0.80    0.00    1.87
