*GROWTH ASPECTS OUTPUT FILE

*DSSAT Cropping System Model Ver. 4.7.2.000 -release      OCT 15, 2021; 17:59:35
                                                                                
*RUN   1        :             CSM335_date_1 MZCER047 ITSA1301    1              
 MODEL          : MZCER047 - Maize                                              
 EXPERIMENT     : ITSA1301 SG CALIBRATION SETUP OF SORGHUM SOWING DATES         
 DATA PATH      :                                                               
 TREATMENT  1   :             CSM335_date_1 MZCER047                            
  
!                                                                                                                                                                                                                                      Root Dens. (cm/cm3) by soil depth (cm):
!                                                                                                                                                                                                                                      0-5    5-15   15-30   30-53   53-77  77-100
@YEAR DOY   DAS   DAP   L#SD   GSTD   LAID   LWAD   SWAD   GWAD   RWAD   VWAD   CWAD   G#AD   GWGD   HIAD   PWAD   P#AD   WSPD   WSGD   NSTD   EWSD  PST1A  PST2A   KSTD   LN%D   SH%D   HIPD   PWDD   PWTD     SLAD   CHTD   CWID   RDPD    RL1D    RL2D    RL3D    RL4D    RL5D    RL6D   CDAD   LDAD   SDAD   SNW0C   SNW1C  DTTD
 2014 282     2     0    0.0      0   0.00      0      0      0      0      0      0      0    0.0  0.000      0      0  0.000  0.000  0.000  0.000  0.000  0.000  0.000   0.00   0.00   0.00      0      0      0.0   0.00   0.00   0.03    0.00    0.00    0.00    0.00    0.00    0.00      0      0      0       0       0 17.14
 2014 283     3     1    0.0      0   0.00      0      0      0      0      0      0      0    0.0  0.000      0      0  0.000  0.000  0.000  0.000  0.000  0.000  0.000   0.00   0.00   0.00      0      0      0.0   0.00   0.00   0.06    0.00    0.00    0.00    0.00    0.00    0.00      0      0      0       0       0 18.20
 2014 284     4     2    0.0      0   0.00      0      0      0      0      0      0      0    0.0  0.000      0      0  0.000  0.000  0.000  0.000  0.000  0.000  0.000   0.00   0.00   0.00      0      0      0.0   0.00   0.00   0.09    0.00    0.00    0.00    0.00    0.00    0.00      0      0      0       0       0 18.51
 2014 285     5     3    0.0      0   0.00      0      0      0      0      0      0      0    0.0  0.000      0      0  0.000  0.000  0.000  0.000  0.000  0.000  0.000   0.00   0.00   0.00      0      0      0.0   0.00   0.00   0.11    0.00    0.00    0.00    0.00    0.00    0.00      0      0      0       0       0 16.52
 2014 286     6     4    0.0      0   0.00      0      0      0      0      0      0      0    0.0  0.000      0      0  0.000  0.000  0.000  0.000  0.000  0.000  0.000   0.00   0.00   0.00      0      0      0.0   0.00   0.00   0.14    0.00    0.00    0.00    0.00    0.00    0.00      0      0      0       0       0 17.63
 2014 287     7     5    2.0      1   0.00     12     12      0     12     25     25      0    0.0  0.000      0      0  0.000  0.000  0.012  0.000  0.000  0.000  0.000   4.40   0.00   0.00      0      0     27.0   0.00   0.00   0.15    0.25    0.11    0.00    0.00    0.00    0.00      0      0      0       0       0 18.27
 2014 288     8     6    2.0      1   0.01     12     12      0     13     25     25      0    0.0  0.000      0      0  0.000  0.000  0.013  0.000  0.000  0.000  0.000   4.40   0.00   0.00      0      0     52.5   0.00   0.00   0.17    0.25    0.11    0.00    0.00    0.00    0.00      0      0      0       0       0 17.90
 2014 289     9     7    2.0      1   0.01     12     12      0     13     25     25      0    0.0  0.000      0      0  0.000  0.000  0.009  0.000  0.000  0.000  0.000   4.40   0.00   0.00      0      0     77.0   0.01   0.00   0.19    0.26    0.11    0.00    0.00    0.00    0.00      0      0      0       0       0 15.53
 2014 290    10     8    3.0      1   0.01     12     12      0     14     25     25      0    0.0  0.000      0      0  0.000  0.000  0.004  0.000  0.000  0.000  0.000   4.40   0.00   0.00      0      0    108.0   0.01   0.00   0.21    0.28    0.12    0.00    0.00    0.00    0.00      0      0      0       0       0 17.62
 2014 291    11     9    3.0      1   0.02     12     12      0     16     25     25      0    0.0  0.000      0      0  0.000  0.000  0.000  0.000  0.000  0.000  0.000   4.40   0.00   0.00      0      0    140.0   0.01   0.00   0.22    0.30    0.13    0.00    0.00    0.00    0.00      0      0      0       0       0 16.82
 2014 292    12    10    4.0      1   0.03     12     12      0     17     25     25      0    0.0  0.000      0      0  0.000  0.000  0.000  0.000  0.000  0.000  0.000   4.40   0.00   0.00      0      0    234.1   0.02   0.00   0.24    0.31    0.14    0.01    0.00    0.00    0.00      0      0      0       0       0 14.87
 2014 293    13    11    4.0      1   0.04     12     12      0     18     25     25      0    0.0  0.000      0      0  0.000  0.000  0.000  0.000  0.000  0.000  0.000   4.40   0.00   0.00      0      0    314.0   0.02   0.00   0.25    0.31    0.15    0.01    0.00    0.00    0.00      0      0      0       0       0 11.48
 2014 294    14    12    4.0      1   0.05     16     12      0     19     28     28      0    0.0  0.000      0      0  0.000  0.000  0.000  0.000  0.000  0.000  0.000   3.84   0.00   0.00      0      0    325.7   0.03   0.00   0.26    0.33    0.15    0.02    0.00    0.00    0.00      0      0      0       0       0 14.11
 2014 295    15    13    5.0      1   0.07     23     12      0     20     36     36      0    0.0  0.000      0      0  0.000  0.000  0.000  0.000  0.000  0.000  0.000   3.40   0.00   0.00      0      0    302.2   0.04   0.00   0.28    0.34    0.16    0.03    0.00    0.00    0.00      0      0      0       0       0 16.42
 2014 296    16    14    5.0      1   0.09     31     12      0     21     43     43      0    0.0  0.000      0      0  0.000  0.000  0.000  0.000  0.000  0.000  0.000   3.48   0.00   0.00      0      0    285.1   0.05   0.00   0.29    0.34    0.16    0.03    0.00    0.00    0.00      0      0      0       0       0 14.93
 2014 297    17    15    5.0      1   0.11     40     12      0     23     52     52      0    0.0  0.000      0      0  0.000  0.000  0.000  0.000  0.000  0.000  0.000   3.46   0.00   0.00      0      0    270.4   0.06   0.00   0.31    0.36    0.17    0.04    0.00    0.00    0.00      0      0      0       0       0 15.35
 2014 298    18    16    6.0      1   0.13     50     12      0     28     62     62      0    0.0  0.000      0      0  0.000  0.000  0.000  0.000  0.000  0.000  0.000   3.46   0.00   0.00      0      0    257.8   0.07   0.00   0.33    0.40    0.20    0.07    0.00    0.00    0.00      0      0      0       0       0 15.46
 2014 299    19    17    6.0      1   0.16     63     12      0     33     76     76      0    0.0  0.000      0      0  0.000  0.000  0.000  0.000  0.000  0.000  0.000   3.40   0.00   0.00      0      0    245.6   0.08   0.00   0.34    0.45    0.23    0.10    0.00    0.00    0.00      0      0      0       0       1 17.12
 2014 300    20    18    6.0      1   0.18     78     12      0     40     90     90      0    0.0  0.000      0      0  0.000  0.000  0.000  0.000  0.000  0.000  0.000   3.42   0.00   0.00      0      0    235.3   0.10   0.00   0.36    0.50    0.27    0.14    0.01    0.00    0.00      0      0      0       0       1 16.26
 2014 301    21    19    7.0      1   0.22     95     12      0     51    108    108      0    0.0  0.000      0      0  0.000  0.000  0.000  0.000  0.000  0.000  0.000   3.39   0.00   0.00      0      0    225.7   0.12   0.00   0.39    0.59    0.34    0.20    0.01    0.00    0.00      0      0      0       0       1 16.90
 2014 302    22    20    7.0      1   0.25    117     12      0     63    129    129      0    0.0  0.000      0      0  0.000  0.000  0.000  0.000  0.000  0.000  0.000   3.35   0.00   0.00      0      0    216.5   0.14   0.00   0.43    0.68    0.41    0.26    0.03    0.00    0.00      0      0      0       0       1 17.95
 2014 303    23    21    7.0      1   0.28    135     12      0     66    147    147      0    0.0  0.000      0      0  0.000  0.000  0.000  0.000  0.000  0.000  0.000   3.49   0.00   0.00      0      0    210.0   0.15   0.00   0.46    0.69    0.42    0.27    0.03    0.00    0.00      0      0      0       0       1 13.77
 2014 304    24    22    8.0      1   0.32    158     12      0     77    171    171      0    0.0  0.000      0      0  0.000  0.000  0.000  0.000  0.000  0.000  0.000   3.40   0.00   0.00      0      0    203.1   0.17   0.00   0.49    0.74    0.47    0.33    0.05    0.00    0.00      0      0      0       0       2 15.99
 2014 305    25    23    8.0      1   0.36    183     12      0     85    196    196      0    0.0  0.000      0      0  0.000  0.000  0.000  0.000  0.000  0.000  0.000   3.42   0.00   0.00      0      0    197.0   0.19   0.00   0.52    0.77    0.51    0.37    0.07    0.00    0.00      0      0      0       0       2 15.06
 2014 306    26    24    8.0      2   0.41    199     12      0    101    211    211      0    0.0  0.000      0      0  0.000  0.000  0.000  0.000  0.000  0.000  0.000   3.59   0.00   0.00      0      0    206.8   0.22   0.00   0.55    0.83    0.58    0.45    0.12    0.00    0.00      0      0      0       0       3 15.50
 2014 307    27    25    8.0      2   0.45    225     12      0    109    237    237      0    0.0  0.000      0      0  0.000  0.000  0.002  0.000  0.000  0.000  0.000   3.47   0.00   0.00      0      0    201.6   0.24   0.00   0.57    0.86    0.61    0.48    0.14    0.00    0.00      0      0      0       0       3 12.14
 2014 308    28    26    9.0      2   0.51    264     12      0    130    276    276      0    0.0  0.000      0      0  0.000  0.000  0.000  0.000  0.000  0.000  0.000   3.28   0.00   0.00      0      0    194.9   0.28   0.00   0.61    0.94    0.69    0.58    0.19    0.01    0.00      0      0      0       0       4 16.72
 2014 309    29    27    9.0      2   0.58    309     12      0    154    321    321      0    0.0  0.000      0      0  0.000  0.000  0.000  0.000  0.000  0.000  0.000   3.79   0.00   0.00      0      0    188.5   0.31   0.00   0.64    1.04    0.78    0.68    0.25    0.03    0.00      0      0      0       0       4 17.14
 2014 310    30    28   10.0      2   0.65    357     12      0    167    369    369      0    0.0  0.000      0      0  0.000  0.000  0.000  0.000  0.000  0.000  0.000   3.72   0.00   0.00      0      0    182.9   0.35   0.00   0.67    1.10    0.83    0.73    0.28    0.04    0.00      0      0      0       0       5 16.57
 2014 311    31    29   10.0      3   0.72    403     12      0    172    416    416      0    0.0  0.000      0      0  0.000  0.000  0.000  0.000  0.000  0.000  0.000   3.61   0.00   0.00      0      0    177.4   0.39   0.00   0.70    1.11    0.84    0.75    0.29    0.05    0.00      0      0      0       0       6 14.81
 2014 312    32    30   10.0      3   0.79    454     13      0    202    467    467      0    0.0  0.000      0      0  0.000  0.000  0.000  0.000  0.000  0.000  0.000   3.56   0.00   0.00      0      0    173.8   0.42   0.00   0.73    1.21    0.95    0.87    0.35    0.09    0.00      0      0      0       0       7 14.72
 2014 313    33    31   10.0      3   0.88    515     14      0    241    529    529      0    0.0  0.000      0      0  0.000  0.000  0.000  0.000  0.000  0.000  0.000   3.51   0.00   0.00      0      0    170.0   0.47   0.00   0.77    1.34    1.09    1.03    0.43    0.14    0.00      0      0      0       0       8 16.46
 2014 314    34    32   11.0      3   0.96    576     16      0    250    592    592      0    0.0  0.000      0      0  0.000  0.000  0.000  0.000  0.000  0.000  0.000   3.48   0.00   0.00      0      0    166.6   0.52   0.00   0.80    1.36    1.11    1.06    0.46    0.16    0.00      0      0      0       0       9 15.21
 2014 315    35    33   11.0      3   1.04    632     18      0    268    649    649      0    0.0  0.000      0      0  0.000  0.000  0.000  0.000  0.000  0.000  0.000   3.44   0.00   0.00      0      0    163.9   0.56   0.00   0.82    1.39    1.16    1.13    0.50    0.19    0.00      0      0      0       0      10 12.80
 2014 316    36    34   11.0      3   1.12    696     22      0    306    718    718      0    0.0  0.000      0      0  0.000  0.000  0.000  0.000  0.000  0.000  0.000   3.41   0.00   0.00      0      0    161.1   0.60   0.00   0.85    1.46    1.26    1.26    0.58    0.26    0.02      0      0      0       0      12 13.95
 2014 317    37    35   12.0      3   1.22    773     28      0    321    801    801      0    0.0  0.000      0      0  0.000  0.000  0.000  0.000  0.000  0.000  0.000   3.37   0.00   0.00      0      0    158.0   0.66   0.00   0.88    1.48    1.29    1.31    0.62    0.29    0.03      0      0      0       0      13 13.55
 2014 318    38    36   12.0      3   1.32    849     35      0    333    884    884      0    0.0  0.000      0      0  0.000  0.000  0.000  0.000  0.000  0.000  0.000   3.34   0.00   0.00      0      0    155.3   0.71   0.00   0.90    1.50    1.32    1.36    0.64    0.31    0.04      0      0      0       0      15 12.95
 2014 319    39    37   12.0      3   1.43    935     46      0    340    981    981      0    0.0  0.000      0      0  0.000  0.000  0.000  0.000  0.000  0.000  0.000   3.31   0.00   0.00      0      0    152.5   0.77   0.00   0.93    1.50    1.33    1.38    0.66    0.32    0.05      0      0      0       0      16 14.35
 2014 320    40    38   12.0      3   1.53   1018     59      0    361   1077   1077      0    0.0  0.000      0      0  0.000  0.000  0.000  0.000  0.000  0.000  0.000   3.27   0.00   0.00      0      0    150.1   0.82   0.00   0.96    1.54    1.38    1.45    0.69    0.36    0.08      0      0      0       0      18 13.75
 2014 321    41    39   13.0      3   1.63   1103     75      0    417   1179   1179      0    0.0  0.000      0      0  0.000  0.000  0.000  0.000  0.000  0.000  0.000   3.24   0.00   0.00      0      0    147.9   0.88   0.00   0.99    1.67    1.53    1.64    0.78    0.44    0.17      0      0      0       0      20 13.85
 2014 322    42    40   13.0      3   1.74   1196     96      0    422   1292   1292      0    0.0  0.000      0      0  0.000  0.000  0.000  0.000  0.000  0.000  0.000   3.21   0.00   0.00      0      0    145.7   0.94   0.00   1.00    1.68    1.54    1.66    0.78    0.44    0.18      0      0      0       0      22 14.75
 2014 323    43    41   13.0      3   1.82   1262    113      0    424   1375   1375      0    0.0  0.000      0      0  0.000  0.000  0.000  0.000  0.000  0.000  0.000   3.17   0.00   0.00      0      0    144.2   0.98   0.00   1.00    1.68    1.55    1.67    0.78    0.45    0.18      0      0      0       0      24 13.40
 2014 324    44    42   14.0      3   1.91   1343    137      0    435   1480   1480      0    0.0  0.000      0      0  0.000  0.000  0.000  0.000  0.000  0.000  0.000   3.15   0.00   0.00      0      0    142.5   1.03   0.00   1.00    1.70    1.59    1.72    0.79    0.46    0.20      0      0      0       0      26 12.60
 2014 325    45    43   14.0      3   2.01   1428    166      0    454   1594   1594      0    0.0  0.000      0      0  0.000  0.000  0.000  0.000  0.000  0.000  0.000   3.12   0.00   0.00      0      0    140.8   1.08   0.00   1.00    1.75    1.66    1.81    0.81    0.47    0.23      0      0      0       0      28 13.00
 2014 326    46    44   14.0      3   2.12   1524    203      0    507   1727   1727      0    0.0  0.000      0      0  0.000  0.000  0.000  0.000  0.000  0.000  0.000   3.08   0.00   0.00      0      0    139.1   1.14   0.00   1.00    1.93    1.89    2.12    0.85    0.48    0.29      0      0      0       0      31 14.55
 2014 327    47    45   14.0      3   2.23   1622    246      0    528   1868   1868      0    0.0  0.000      0      0  0.000  0.000  0.000  0.000  0.000  0.000  0.000   3.05   0.00   0.00      0      0    137.5   1.20   0.00   1.00    2.02    2.00    2.26    0.85    0.49    0.29      0      0      0       0      33 14.65
 2014 328    48    46   15.0      3   2.34   1723    295      0    583   2018   2018      0    0.0  0.000      0      0  0.000  0.000  0.000  0.000  0.000  0.000  0.000   3.02   0.00   0.00      0      0    135.9   1.26   0.00   1.00    2.29    2.29    2.61    0.87    0.51    0.31      0      0      0       0      36 14.90
 2014 329    49    47   15.0      3   2.47   1837    359      0    598   2196   2196      0    0.0  0.000      0      0  0.000  0.000  0.000  0.000  0.000  0.000  0.000   2.98   0.00   0.00      0      0    134.2   1.33   0.00   1.00    2.69    2.32    2.65    0.87    0.51    0.31      0      0      0       0      39 16.65
 2014 330    50    48   15.0      3   2.56   1923    412      0    603   2335   2335      0    0.0  0.000      0      0  0.000  0.000  0.000  0.000  0.000  0.000  0.000   2.95   0.00   0.00      0      0    133.1   1.38   0.00   1.00    2.84    2.33    2.66    0.86    0.51    0.31      0      0      0       0      42 12.70
 2014 331    51    49   16.0      3   2.64   1997    462      0    607   2459   2459      0    0.0  0.000      0      0  0.000  0.000  0.000  0.000  0.000  0.000  0.000   2.92   0.00   0.00      0      0    132.1   1.42   0.00   1.00    2.96    2.35    2.67    0.86    0.50    0.31      0      0      0       0      45 12.50
 2014 332    52    50   16.0      3   2.74   2094    534      0    613   2628   2628      0    0.0  0.000      0      0  0.000  0.000  0.000  0.000  0.000  0.000  0.000   2.89   0.00   0.00      0      0    130.9   1.48   0.00   1.00    3.12    2.38    2.69    0.86    0.50    0.31      0      0      0       0      48 14.50
 2014 333    53    51   16.0      3   2.85   2193    613      0    624   2807   2807      0    0.0  0.000      0      0  0.000  0.000  0.000  0.000  0.000  0.000  0.000   2.86   0.00   0.00      0      0    129.7   1.53   0.00   1.00    3.28    2.48    2.71    0.85    0.50    0.31      0      0      0       0      51 13.90
 2014 334    54    52   16.0      3   2.90   2247    660      0    627   2907   2907      0    0.0  0.000      0      0  0.000  0.000  0.000  0.000  0.000  0.000  0.000   2.84   0.00   0.00      0      0    129.1   1.56   0.00   1.00    3.33    2.51    2.72    0.85    0.50    0.31      0      0      0       0      54 13.10
 2014 335    55    53   17.0      3   3.01   2356    764      0    660   3120   3120      0    0.0  0.000      0      0  0.000  0.000  0.000  0.000  0.000  0.000  0.000   2.81   0.00   0.00      0      0    127.9   1.60   0.00   1.00    3.73    2.74    2.84    0.85    0.50    0.31      0      0      0       0      57 15.10
 2014 336    56    54   17.0      3   3.10   2436    847      0    665   3283   3283      0    0.0  0.000      0      0  0.000  0.000  0.000  0.000  0.000  0.000  0.000   2.78   0.00   0.00      0      0    127.1   1.60   0.00   1.00    3.82    2.79    2.86    0.85    0.50    0.31      0      0      0       0      60 14.45
 2014 337    57    55   17.0      3   3.17   2512    882      0    668   3394   3394      0    0.0  0.000      0      0  0.000  0.000  0.000  0.000  0.000  0.000  0.000   2.75   0.00   0.00      0      0    126.4   1.60   0.00   1.00    3.87    2.82    2.88    0.84    0.50    0.31      0      0      0       0      64 12.85
 2014 338    58    56   18.0      3   3.24   2580    946      0    672   3525   3525      0    0.0  0.000      0      0  0.000  0.000  0.000  0.000  0.000  0.000  0.000   2.72   0.00   0.00      0      0    125.7   1.60   0.00   1.00    3.93    2.85    2.89    0.84    0.50    0.31      0      0      0       0      67 13.30
 2014 339    59    57   18.0      3   3.37   2704   1104      0    685   3808   3808      0    0.0  0.000      0      0  0.000  0.000  0.000  0.000  0.000  0.000  0.000   2.69   0.00   0.00      0      0    124.6   1.60   0.00   1.00    4.00    2.94    2.96    0.84    0.49    0.31      0      0      0       0      70 14.35
 2014 340    60    58   18.0      3   3.49   2825   1287      0    699   4112   4117      0    0.0  0.000      5      0  0.000  0.000  0.000  0.000  0.000  0.000  0.000   2.66   0.00   0.00      0      5    123.5   1.60   0.00   1.00    4.00    3.04    3.03    0.84    0.49    0.31      0      0      0       0      74 15.90
 2014 341    61    59   19.0      3   3.59   2922   1455      0    711   4377   4387      0    0.0  0.000     10      0  0.000  0.000  0.000  0.000  0.000  0.000  0.000   2.62   0.00   0.00      0     10    122.7   1.60   0.00   1.00    4.00    3.11    3.08    0.83    0.49    0.31      0      0      0       0      77 15.75
 2014 342    62    60   19.0      3   3.68   3019   1639      0    731   4658   4676      0    0.0  0.000     18      0  0.000  0.000  0.000  0.000  0.000  0.000  0.000   2.56   0.00   0.00      0     18    121.9   1.60   0.00   1.00    4.00    3.23    3.17    0.83    0.50    0.31      0      0      0       0      81 16.30
 2014 343    63    61   19.0      3   3.76   3103   1807      0    751   4910   4939      0    0.0  0.000     28      0  0.000  0.000  0.000  0.000  0.000  0.000  0.000   2.49   0.00   0.01      0     28    121.3   1.60   0.00   1.00    4.00    3.35    3.24    0.84    0.50    0.32      0      0      0       0      85 15.20
 2014 344    64    62   19.0      3   3.81   3151   1913      0    756   5064   5098      0    0.0  0.000     34      0  0.000  0.000  0.000  0.000  0.000  0.000  0.000   2.46   0.00   0.01      0     34    120.9   1.60   0.00   1.00    4.00    3.39    3.26    0.84    0.50    0.32      0      0      0       0      88 13.10
 2014 345    65    63   20.0      3   3.88   3223   2070      0    780   5293   5344      0    0.0  0.000     51      0  0.000  0.000  0.000  0.000  0.000  0.000  0.000   2.39   0.00   0.01      0     51    120.4   1.60   0.00   1.00    4.00    3.51    3.37    0.86    0.52    0.34      0      0      0       0      92 14.75
 2014 346    66    64   20.0      3   3.93   3276   2195      0    787   5471   5535      0    0.0  0.000     63      0  0.000  0.000  0.000  0.000  0.000  0.000  0.000   2.33   0.00   0.01      0     63    120.0   1.60   0.00   1.00    4.00    3.53    3.39    0.86    0.53    0.35      0      0      0       0      96 15.10
 2014 347    67    65   20.0      3   3.99   3346   2348      0    828   5694   5792      0    0.0  0.000     98      0  0.000  0.000  0.010  0.000  0.000  0.000  0.000   2.26   0.00   0.02      0     98    119.4   1.60   0.00   1.00    4.00    3.59    3.52    0.93    0.60    0.42      0      0      0       0     100 16.35
 2014 348    68    66   21.0      3   4.05   3409   2491      0    839   5900   6034      0    0.0  0.000    134      0  0.000  0.000  0.017  0.000  0.000  0.000  0.000   2.19   0.00   0.02      0    134    118.7   1.60   0.00   1.00    4.00    3.60    3.53    0.95    0.62    0.45      0      0      0       0     104 15.85
 2014 349    69    67   21.0      3   4.09   3466   2613      0    861   6079   6260      0    0.0  0.000    181      0  0.000  0.000  0.028  0.000  0.000  0.000  0.000   2.14   0.00   0.03      0    181    117.9   1.60   0.00   1.00    4.00    3.64    3.57    1.00    0.67    0.50      0      0      0       0     108 15.40
 2014 350    70    68   21.0      3   4.11   3516   2717      0    868   6233   6458      0    0.0  0.000    225      0  0.000  0.000  0.037  0.000  0.000  0.000  0.000   2.09   0.00   0.03      0    225    117.0   1.60   0.00   1.00    4.00    3.64    3.57    1.02    0.69    0.51      0      0      0       0     113 14.85
 2014 351    71    69   21.0      3   4.14   3570   2814      0    876   6384   6668      0    0.0  0.000    284      0  0.000  0.000  0.044  0.000  0.000  0.000  0.000   2.05   0.00   0.04      0    284    116.0   1.60   0.00   1.00    4.00    3.64    3.58    1.03    0.71    0.53      0      0      0       0     117 15.55
 2014 352    72    70   21.0      3   4.17   3622   2893      0    883   6515   6871      0    0.0  0.000    356      0  0.000  0.000  0.049  0.000  0.000  0.000  0.000   2.02   0.00   0.05      0    356    115.0   1.60   0.00   1.00    4.00    3.65    3.58    1.05    0.73    0.55      0      0      0       0     121 14.65
 2014 353    73    71   21.0      3   4.19   3675   2933      0    925   6608   7078      0    0.0  0.000    470      0  0.000  0.000  0.053  0.000  0.000  0.000  0.000   1.99   0.00   0.07      0    470    114.0   1.60   0.00   1.00    4.00    3.72    3.65    1.13    0.81    0.64      0      0      0       0     126 15.10
 2014 354    74    72   21.0      3   4.21   3728   2970      0    950   6698   7286      0    0.0  0.000    588      0  0.000  0.000  0.056  0.000  0.000  0.000  0.000   1.97   0.00   0.08      0    588    112.9   1.60   0.00   1.00    4.00    3.75    3.69    1.18    0.86    0.69      0      0      0       0     130 15.25
 2014 355    75    73   21.0      3   4.23   3780   2986      0    979   6766   7489      0    0.0  0.000    723      0  0.000  0.000  0.056  0.000  0.000  0.000  0.000   1.96   0.00   0.10      0    723    111.8   1.60   0.00   1.00    4.00    3.80    3.73    1.24    0.92    0.75      0      0      0       0     135 14.90
 2014 356    76    74   21.0      3   4.24   3824   3027      0    984   6852   7663      0    0.0  0.000    811      0  0.000  0.000  0.056  0.000  0.000  0.000  0.000   1.94   0.00   0.11      0    811    110.8   1.60   0.00   1.00    4.00    3.80    3.73    1.25    0.94    0.77      0      0      0       0     140 15.65
 2014 357    77    75   21.0      4   4.21   3785   3106      0    987   6891   7805      0    0.0  0.000    914      0  0.000  0.000  0.054  0.000  0.000  0.000  0.000   1.93   0.00   0.12      0    914    111.2   1.60   0.00   1.00    4.00    3.79    3.73    1.26    0.95    0.78      0      0      0       0     145 14.60
 2014 358    78    76   21.0      4   4.19   3742   3165      0    989   6907   7919      0    0.0  0.000   1012      0  0.000  0.000  0.046  0.000  0.000  0.000  0.000   1.93   0.00   0.13      0   1012    111.9   1.60   0.00   1.00    3.99    3.79    3.72    1.27    0.95    0.79      0      0      0       0     150 15.15
 2014 359    79    77   21.0      4   4.17   3697   3193      0    987   6889   7957      0    0.0  0.000   1067      0  0.000  0.000  0.039  0.000  0.000  0.000  0.000   1.94   0.00   0.13      0   1067    112.7   1.60   0.00   1.00    3.98    3.78    3.71    1.27    0.96    0.79      0      0      0       0     155 13.50
 2014 360    80    78   21.0      4   4.15   3648   3242      0    990   6891   8082      0    0.0  0.000   1191      0  0.000  0.000  0.029  0.000  0.000  0.000  0.000   1.95   0.00   0.15      0   1191    113.8   1.60   0.00   1.00    3.97    3.77    3.71    1.28    0.96    0.80      0      0      0       0     160 15.35
 2014 361    81    79   21.0      4   4.10   3597   3381      0    995   6979   8266      0    0.0  0.000   1287      0  0.236  0.491  0.015  0.000  0.000  0.000  0.000   1.92   0.00   0.16      0   1287    114.0   1.60   0.00   1.00    3.97    3.77    3.71    1.29    0.98    0.81      0      0      0       0     165 16.35
 2014 362    82    80   21.0      4   4.04   3543   3483      0    997   7026   8373      0    0.0  0.000   1347      0  0.317  0.545  0.003  0.000  0.000  0.000  0.000   1.91   0.00   0.16      0   1347    113.9   1.60   0.00   1.00    3.95    3.77    3.70    1.30    0.99    0.82      0      0      0       0     170 16.25
 2014 363    83    81   21.0      4   3.93   3486   3573      0    998   7059   8439      0    0.0  0.000   1380      0  0.518  0.679  0.000  0.000  0.000  0.000  0.000   1.90   0.00   0.16      0   1380    112.8   1.60   0.00   1.00    3.93    3.76    3.70    1.30    1.00    0.83      0      0      0       0     175 15.80
 2014 364    84    82   21.0      4   3.84   3426   3643      0    997   7069   8480      0    0.0  0.000   1411      0  0.466  0.645  0.000  0.000  0.000  0.000  0.000   1.90   0.00   0.17      0   1411    112.1   1.60   0.00   1.00    3.91    3.75    3.69    1.30    1.00    0.83      0      0      0       0     180 16.20
 2014 365    85    83   21.0      4   3.72   3363   3711      0    996   7074   8502      0    0.0  0.000   1428      0  0.650  0.767  0.000  0.000  0.000  0.000  0.000   1.90   0.00   0.17      0   1428    110.5   1.60   0.00   1.00    3.89    3.74    3.67    1.30    1.00    0.84      0      0      0       0     185 16.25
 2015 001    86    84   21.0      4   3.59   3297   3772      0    994   7068   8510      0    0.0  0.000   1442      0  0.661  0.774  0.000  0.000  0.000  0.000  0.000   1.90   0.00   0.17      0   1442    109.0   1.60   0.00   1.00    3.87    3.73    3.66    1.30    1.00    0.84      0      0      0       0     185 15.80
 2015 002    87    85   21.0      5   3.46   3297   3766     76    989   7063   8581   1016    7.5  0.009   1519      6  0.767  0.845  0.000  0.000  0.000  0.000  0.000   1.88   5.03   0.18      0   1519    104.8   1.60   0.00   1.00    3.87    3.73    3.66    1.30    1.00    0.84      0      0      0       0     185 16.30
 2015 003    88    86   21.0      5   3.31   3297   3742    149    984   7039   8629   1016   14.6  0.017   1591      6  0.825  0.884  0.000  0.000  0.000  0.000  0.000   1.87   9.34   0.18      0   1591    100.5   1.60   0.00   1.00    3.87    3.73    3.66    1.30    1.00    0.84      0      0      0       0     185 16.75
 2015 004    89    87   21.0      5   3.17   3297   3715    220    979   7011   8673   1016   21.6  0.025   1662      6  0.836  0.891  0.000  0.000  0.000  0.000  0.000   1.86  13.23   0.19      0   1662     96.3   1.60   0.00   1.00    3.87    3.73    3.66    1.30    1.00    0.84      0      0      0       0     185 16.05
 2015 005    90    88   21.0      5   3.11   3297   3737    322    986   7034   8798   1016   31.7  0.037   1764      6  0.416  0.611  0.000  0.000  0.000  0.000  0.000   1.82  18.24   0.20      0   1764     94.3   1.60   0.00   1.00    3.85    3.71    3.64    1.33    1.03    0.87      0      0      0       0     185 16.25
 2015 006    91    89   21.0      5   3.01   3297   3691    408    981   6988   8837   1016   40.1  0.046   1850      6  0.637  0.759  0.000  0.000  0.000  0.000  0.000   1.81  22.03   0.21      0   1850     91.3   1.60   0.00   1.00    3.85    3.71    3.64    1.33    1.03    0.87      0      0      0       0     185 14.65
 2015 007    92    90   21.0      5   2.88   3297   3656    478    976   6953   8873   1016   47.0  0.054   1920      6  0.849  0.900  0.000  0.000  0.000  0.000  0.000   1.80  24.89   0.22      0   1920     87.4   1.60   0.00   1.00    3.85    3.71    3.64    1.33    1.03    0.87      0      0      0       0     185 15.80
 2015 008    93    91   21.0      5   2.76   3297   3620    547    971   6916   8906   1016   53.9  0.061   1990      6  0.862  0.908  0.000  0.000  0.000  0.000  0.000   1.79  27.51   0.22      0   1990     83.7   1.60   0.00   1.00    3.85    3.71    3.64    1.33    1.03    0.87      0      0      0       0     185 15.90
 2015 009    94    92   21.0      5   2.64   3297   3578    620    966   6875   8937   1016   61.0  0.069   2062      6  0.824  0.883  0.000  0.000  0.000  0.000  0.000   1.78  30.05   0.23      0   2062     80.2   1.60   0.00   1.00    3.85    3.71    3.64    1.33    1.03    0.87      0      0      0       0     185 15.95
 2015 010    95    93   21.0      5   2.53   3297   3539    688    961   6835   8965   1016   67.7  0.077   2130      6  0.882  0.922  0.000  0.000  0.000  0.000  0.000   1.78  32.29   0.24      0   2130     76.7   1.60   0.00   1.00    3.85    3.71    3.64    1.33    1.03    0.87      0      0      0       0     185 17.10
 2015 011    96    94   21.0      5   2.53   3297   3539    820    956   6835   9097   1016   80.7  0.090   2262      6  0.000  0.000  0.000  0.000  0.000  0.000  0.000   1.74  36.24   0.25      0   2262     76.7   1.60   0.00   1.00    3.83    3.69    3.62    1.32    1.02    0.86      0      0      0       0     185 14.15
 2015 012    97    95   21.0      5   2.53   3297   3554    952    959   6850   9244   1016   93.7  0.103   2394      6  0.000  0.000  0.000  0.000  0.000  0.000  0.000   1.71  39.76   0.26      0   2394     76.7   1.60   0.00   1.00    3.87    3.72    3.61    1.32    1.02    0.87      0      0      0       0     185 14.60
 2015 013    98    96   21.0      5   2.53   3297   3574   1084    964   6870   9397   1016  106.7  0.115   2526      6  0.000  0.000  0.000  0.000  0.000  0.000  0.000   1.67  42.91   0.27      0   2526     76.7   1.60   0.00   1.00    3.92    3.78    3.62    1.32    1.03    0.87      0      0      0       0     185 16.25
 2015 014    99    97   21.0      5   2.53   3297   3626   1216    986   6923   9581   1016  119.7  0.127   2658      6  0.000  0.000  0.000  0.000  0.000  0.000  0.000   1.62  45.74   0.28      0   2658     76.7   1.60   0.00   1.00    4.00    3.96    3.66    1.33    1.04    0.88      0      0      0       0     185 16.50
 2015 015   100    98   21.0      5   2.53   3297   3666   1348   1001   6963   9753   1016  132.7  0.138   2790      6  0.000  0.000  0.000  0.000  0.000  0.000  0.000   1.58  48.31   0.29      0   2790     76.7   1.60   0.00   1.00    4.00    4.00    3.69    1.34    1.04    0.88      0      0      0       0     185 16.40
 2015 016   101    99   21.0      5   2.53   3297   3719   1480   1022   7016   9938   1016  145.7  0.149   2922      6  0.000  0.110  0.000  0.000  0.000  0.000  0.000   1.54  50.65   0.29      0   2922     76.7   1.60   0.00   1.00    4.00    4.00    3.75    1.34    1.05    0.89      0      0      0       0     185 17.15
 2015 017   102   100   21.0      5   2.45   3297   3728   1570   1022   7025  10037   1016  154.5  0.156   3012      6  0.579  0.720  0.000  0.000  0.000  0.000  0.000   1.51  52.12   0.30      0   3012     74.5   1.60   0.00   1.00    3.99    4.00    3.75    1.34    1.04    0.89      0      0      0       0     185 16.75
 2015 018   103   101   21.0      5   2.37   3297   3720   1653   1016   7016  10112   1016  162.7  0.163   3095      6  0.674  0.783  0.000  0.000  0.000  0.000  0.000   1.49  53.41   0.31      0   3095     71.9   1.60   0.00   1.00    3.99    4.00    3.75    1.34    1.04    0.89      0      0      0       0     185 17.10
 2015 019   104   102   21.0      5   2.29   3297   3706   1735   1011   7002  10180   1016  170.8  0.170   3177      6  0.693  0.796  0.000  0.000  0.000  0.000  0.000   1.47  54.61   0.31      0   3177     69.4   1.60   0.00   1.00    3.99    4.00    3.75    1.34    1.04    0.89      0      0      0       0     185 16.25
 2015 020   105   103   21.0      5   2.23   3297   3669   1829   1006   6966  10237   1016  180.1  0.179   3271      6  0.520  0.681  0.000  0.000  0.000  0.000  0.000   1.46  55.92   0.32      0   3271     67.6   1.60   0.00   1.00    3.99    4.00    3.75    1.34    1.04    0.89      0      0      0       0     185 13.65
 2015 021   106   104   21.0      5   2.23   3297   3659   1961   1001   6956  10359   1016  193.1  0.189   3404      6  0.000  0.000  0.000  0.000  0.000  0.000  0.000   1.43  57.63   0.33      0   3404     67.6   1.60   0.00   1.00    3.99    4.00    3.75    1.34    1.04    0.89      0      0      0       0     185 14.40
 2015 022   107   105   21.0      5   2.23   3297   3650   2093    996   6947  10482   1016  206.1  0.200   3536      6  0.000  0.000  0.000  0.000  0.000  0.000  0.000   1.39  59.21   0.34      0   3536     67.6   1.60   0.00   1.00    3.99    4.00    3.75    1.34    1.04    0.89      0      0      0       0     185 14.10
 2015 023   108   106   21.0      5   2.23   3297   3700   2225   1016   6997  10665   1016  219.1  0.209   3668      6  0.000  0.000  0.000  0.000  0.000  0.000  0.000   1.35  60.68   0.34      0   3668     67.6   1.60   0.00   1.00    4.00    4.00    3.91    1.34    1.05    0.89      0      0      0       0     185 15.80
 2015 024   109   107   21.0      5   2.23   3297   3696   2358   1011   6992  10792   1016  232.1  0.218   3800      6  0.000  0.000  0.000  0.000  0.000  0.000  0.000   1.32  62.04   0.35      0   3800     67.6   1.60   0.00   1.00    4.00    4.00    3.91    1.34    1.05    0.89      0      0      0       0     185 14.05
 2015 025   110   108   21.0      5   2.23   3297   3684   2490   1006   6980  10912   1016  245.1  0.228   3932      6  0.000  0.000  0.000  0.000  0.000  0.000  0.000   1.29  63.32   0.36      0   3932     67.6   1.60   0.00   1.00    4.00    4.00    3.91    1.34    1.05    0.89      0      0      0       0     185 12.25
 2015 026   111   109   21.0      5   2.23   3297   3730   2622   1024   7026  11090   1016  258.1  0.236   4064      6  0.000  0.000  0.000  0.000  0.000  0.000  0.000   1.25  64.51   0.37      0   4064     67.6   1.60   0.00   1.00    4.00    4.00    4.00    1.33    1.05    0.89      0      0      0       0     185 14.95
 2015 027   112   110   21.0      5   2.23   3297   3772   2754   1057   7068  11264   1016  271.1  0.244   4196      6  0.000  0.000  0.000  0.000  0.000  0.000  0.000   1.21  65.63   0.37      0   4196     67.6   1.60   0.00   1.00    4.00    4.00    4.00    1.34    1.05    0.90      0      0      0       0     185 16.05
 2015 028   113   111   21.0      5   2.23   3297   3772   2886   1087   7068  11396   1016  284.1  0.253   4328      6  0.000  0.000  0.000  0.000  0.000  0.000  0.000   1.18  66.68   0.38      0   4328     67.6   1.60   0.00   1.00    4.00    4.00    4.00    1.34    1.05    0.90      0      0      0       0     185 18.00
 2015 029   114   112   21.0      5   2.07   3297   3772   3018   1101   7068  11528   1016  297.1  0.262   4460      6  0.000  0.000  0.000  0.000  0.000  0.000  0.000   1.15  67.66   0.39      0   4460     62.7   1.60   0.00   1.00    4.00    4.00    4.00    1.33    1.05    0.90      0      0      0       0     185 16.80
 2015 030   115   113   21.0      5   1.90   3297   3772   3150   1112   7068  11660   1016  310.1  0.270   4592      6  0.000  0.000  0.000  0.000  0.000  0.000  0.000   1.12  68.59   0.39      0   4592     57.5   1.60   0.00   1.00    4.00    4.00    4.00    1.33    1.04    0.89      0      0      0       0     185 16.85
 2015 031   116   114   21.0      5   1.73   3297   3772   3268   1122   7068  11778   1016  321.7  0.277   4710      6  0.193  0.463  0.000  0.000  0.000  0.000  0.000   1.09  69.38   0.40      0   4710     52.4   1.60   0.00   1.00    4.00    4.00    4.00    1.32    1.04    0.89      0      0      0       0     185 15.60
 2015 032   117   115   21.0      5   1.73   3297   3772   3268   1122   7068  11778   1016  321.7  0.277   4710      6  0.624  0.750  0.000  0.000  0.000  0.000  0.000   1.09  69.38   0.40      0   4710     52.4   1.60   0.00   1.00    3.98    4.00    4.00    1.32    1.04    0.89      0      0      0       0     185 16.90
 2015 033   118   116   21.0      5   1.73   3297   3772   3268   1122   7068  11778   1016  321.7  0.277   4710      6  0.000  0.750  0.000  0.000  0.000  0.000  0.000   1.09  69.38   0.40      0   4710     52.4   1.60   0.00   1.00    3.96    4.00    4.00    1.32    1.04    0.89      0      0      0       0     185  0.00
 2015 034   119   117   21.0      5   1.73   3297   3772   3268   1122   7068  11778   1016  321.7  0.277   4710      6  0.000  0.750  0.000  0.000  0.000  0.000  0.000   1.09  69.38   0.40      0   4710     52.4   1.60   0.00   1.00    3.94    4.00    4.00    1.31    1.04    0.89      0      0      0       0     185 17.55
 2015 035   120   118   21.0      5   1.73   3297   3772   3268   1122   7068  11778   1016  321.7  0.277   4710      6  0.000  0.750  0.000  0.000  0.000  0.000  0.000   1.09  69.38   0.40      0   4710     52.4   1.60   0.00   1.00    3.92    4.00    4.00    1.31    1.04    0.89      0      0      0       0     185 14.20
 2015 036   121   119   21.0      5   1.73   3297   3772   3268   1122   7068  11778   1016  321.7  0.277   4710      6  0.000  0.750  0.000  0.000  0.000  0.000  0.000   1.09  69.38   0.40      0   4710     52.4   1.60   0.00   1.00    3.90    4.00    4.00    1.32    1.04    0.90      0      0      0       0     185 16.40
 2015 037   122   120   21.0      5   1.73   3297   3772   3268   1122   7068  11778   1016  321.7  0.277   4710      6  0.000  0.750  0.000  0.000  0.000  0.000  0.000   1.09  69.38   0.40      0   4710     52.4   1.60   0.00   1.00    3.88    3.98    4.00    1.34    1.07    0.92      0      0      0       0     185 17.20
 2015 038   123   121   21.0      5   1.73   3297   3772   3268   1122   7068  11778   1016  321.7  0.277   4710      6  0.000  0.750  0.000  0.000  0.000  0.000  0.000   1.09  69.38   0.40      0   4710     52.4   1.60   0.00   1.00    3.86    3.96    3.98    1.38    1.11    0.96      0      0      0       0     185 17.30
 2015 039   124   122   21.0      5   1.73   3297   3772   3268   1122   7068  11778   1016  321.7  0.277   4710      6  0.000  0.750  0.000  0.000  0.000  0.000  0.000   1.09  69.38   0.40      0   4710     52.4   1.60   0.00   1.00    4.00    3.94    3.96    1.40    1.13    0.98      0      0      0       0     185 17.70
 2015 040   125   123   21.0      5   1.73   3297   3772   3268   1122   7068  11778   1016  321.7  0.277   4710      6  0.000  0.750  0.000  0.000  0.000  0.000  0.000   1.09  69.38   0.40      0   4710     52.4   1.60   0.00   1.00    3.98    3.92    3.94    1.43    1.16    1.02      0      0      0       0     185 17.05
 2015 041   126   124   21.0      5   1.73   3297   3772   3268   1122   7068  11778   1016  321.7  0.277   4710      6  0.000  0.750  0.000  0.000  0.000  0.000  0.000   1.09  69.38   0.40      0   4710     52.4   1.60   0.00   1.00    4.00    3.90    3.92    1.44    1.17    1.03      0      0      0       0     185 14.85
 2015 042   127   125   21.0      5   1.73   3297   3772   3268   1122   7068  11778   1016  321.7  0.277   4710      6  0.000  0.750  0.000  0.000  0.000  0.000  0.000   1.09  69.38   0.40      0   4710     52.4   1.60   0.00   1.00    3.98    3.88    3.90    1.48    1.21    1.07      0      0      0       0     185 16.55
 2015 043   128   126   21.0      5   1.73   3297   3772   3268   1122   7068  11778   1016  321.7  0.277   4710      6  0.000  0.750  0.000  0.000  0.000  0.000  0.000   1.09  69.38   0.40      0   4710     52.4   1.60   0.00   1.00    3.96    3.86    3.88    1.51    1.25    1.11      0      0      0       0     185 17.00
 2015 044   129   127   21.0      5   1.73   3297   3772   3268   1122   7068  11778   1016  321.7  0.277   4710      6  0.000  0.750  0.000  0.000  0.000  0.000  0.000   1.09  69.38   0.40      0   4710     52.4   1.60   0.00   1.00    3.94    3.84    3.86    1.55    1.29    1.15      0      0      0       0     185 17.00
 2015 045   130   128   21.0      5   1.73   3297   3772   3268   1122   7068  11778   1016  321.7  0.277   4710      6  0.000  0.750  0.000  0.000  0.000  0.000  0.000   1.09  69.38   0.40      0   4710     52.4   1.60   0.00   1.00    3.92    3.82    3.84    1.59    1.33    1.19      0      0      0       0     185 16.90
 2015 046   131   129   21.0      5   1.73   3297   3772   3268   1122   7068  11778   1016  321.7  0.277   4710      6  0.000  0.750  0.000  0.000  0.000  0.000  0.000   1.09  69.38   0.40      0   4710     52.4   1.60   0.00   1.00    4.00    3.80    3.82    1.59    1.33    1.19      0      0      0       0     185 15.05
 2015 047   132   130   21.0      5   1.73   3297   3772   3268   1122   7068  11778   1016  321.7  0.277   4710      6  0.000  0.750  0.000  0.000  0.000  0.000  0.000   1.09  69.38   0.40      0   4710     52.4   1.60   0.00   1.00    4.00    3.78    3.80    1.59    1.33    1.20      0      0      0       0     185 16.05
 2015 048   133   131   21.0      5   1.73   3297   3772   3268   1122   7068  11778   1016  321.7  0.277   4710      6  0.000  0.750  0.000  0.000  0.000  0.000  0.000   1.09  69.38   0.40      0   4710     52.4   1.60   0.00   1.00    4.00    3.91    3.86    1.59    1.33    1.19      0      0      0       0     185 14.80
 2015 049   134   132   21.0      5   1.73   3297   3772   3268   1122   7068  11778   1016  321.7  0.277   4710      6  0.000  0.750  0.000  0.000  0.000  0.000  0.000   1.09  69.38   0.40      0   4710     52.4   1.60   0.00   1.00    4.00    3.99    3.97    1.58    1.32    1.19      0      0      0       0     185 15.00
 2015 050   135   133   21.0      5   1.73   3297   3772   3268   1122   7068  11778   1016  321.7  0.277   4710      6  0.000  0.750  0.000  0.000  0.000  0.000  0.000   1.09  69.38   0.40      0   4710     52.4   1.60   0.00   1.00    4.00    4.00    4.00    1.58    1.31    1.19      0      0      0       0     185 17.10
 2015 051   136   134   21.0      5   1.73   3297   3772   3268   1122   7068  11778   1016  321.7  0.277   4710      6  0.000  0.750  0.000  0.000  0.000  0.000  0.000   1.09  69.38   0.40      0   4710     52.4   1.60   0.00   1.00    4.00    4.00    4.00    1.57    1.30    1.18      0      0      0       0     185 12.75
 2015 052   137   135   21.0      5   1.73   3297   3772   3268   1122   7068  11778   1016  321.7  0.277   4710      6  0.000  0.750  0.000  0.000  0.000  0.000  0.000   1.09  69.38   0.40      0   4710     52.4   1.60   0.00   1.00    4.00    4.00    4.00    1.56    1.30    1.18      0      0      0       0     185 14.05
 2015 053   138   136   21.0      5   1.73   3297   3772   3268   1122   7068  11778   1016  321.7  0.277   4710      6  0.000  0.750  0.000  0.000  0.000  0.000  0.000   1.09  69.38   0.40      0   4710     52.4   1.60   0.00   1.00    4.00    4.00    4.00    1.55    1.29    1.17      0      0      0       0     185 16.00
 2015 054   139   137   21.0      5   1.73   3297   3772   3268   1122   7068  11778   1016  321.7  0.277   4710      6  0.000  0.750  0.000  0.000  0.000  0.000  0.000   1.09  69.38   0.40      0   4710     52.4   1.60   0.00   1.00    4.00    4.00    4.00    1.54    1.28    1.17      0      0      0       0     185 16.15
 2015 055   140   138   21.0      5   1.73   3297   3772   3268   1122   7068  11778   1016  321.7  0.277   4710      6  0.000  0.750  0.000  0.000  0.000  0.000  0.000   1.09  69.38   0.40      0   4710     52.4   1.60   0.00   1.00    4.00    4.00    4.00    1.54    1.28    1.17      0      0      0       0     185 12.25
 2015 056   141   139   21.0      5   1.73   3297   3772   3268   1122   7068  11778   1016  321.7  0.277   4710      6  0.000  0.750  0.000  0.000  0.000  0.000  0.000   1.09  69.38   0.40      0   4710     52.4   1.60   0.00   1.00    4.00    4.00    4.00    1.53    1.27    1.16      0      0      0       0     185 14.75
 2015 057   142   140   21.0      5   1.73   3297   3772   3268   1122   7068  11778   1016  321.7  0.277   4710      6  0.000  0.750  0.000  0.000  0.000  0.000  0.000   1.09  69.38   0.40      0   4710     52.4   1.60   0.00   1.00    4.00    4.00    4.00    1.52    1.26    1.16      0      0      0       0     185 14.90
 2015 058   143   141   21.0      5   1.73   3297   3772   3268   1122   7068  11778   1016  321.7  0.277   4710      6  0.000  0.750  0.000  0.000  0.000  0.000  0.000   1.09  69.38   0.40      0   4710     52.4   1.60   0.00   1.00    4.00    4.00    4.00    1.51    1.26    1.15      0      0      0       0     185 16.60
 2015 059   144   142   21.0      5   1.73   3297   3772   3268   1122   7068  11778   1016  321.7  0.277   4710      6  0.000  0.750  0.000  0.000  0.000  0.000  0.000   1.09  69.38   0.40      0   4710     52.4   1.60   0.00   1.00    4.00    4.00    4.00    1.50    1.25    1.15      0      0      0       0     185 11.60
 2015 060   145   143   21.0      5   1.73   3297   3772   3268   1122   7068  11778   1016  321.7  0.277   4710      6  0.000  0.750  0.000  0.000  0.000  0.000  0.000   1.09  69.38   0.40      0   4710     52.4   1.60   0.00   1.00    4.00    4.00    4.00    1.50    1.24    1.14      0      0      0       0     185 13.55
 2015 061   146   144   21.0      5   1.73   3297   3772   3268   1122   7068  11778   1016  321.7  0.277   4710      6  0.000  0.750  0.000  0.000  0.000  0.000  0.000   1.09  69.38   0.40      0   4710     52.4   1.60   0.00   1.00    4.00    4.00    4.00    1.49    1.24    1.14      0      0      0       0     185 15.35
 2015 062   147   145   21.0      5   1.73   3297   3772   3268   1122   7068  11778   1016  321.7  0.277   4710      6  0.000  0.750  0.000  0.000  0.000  0.000  0.000   1.09  69.38   0.40      0   4710     52.4   1.60   0.00   1.00    3.98    4.00    4.00    1.48    1.23    1.13      0      0      0       0     185 15.25
