*Soil Inorganic Nitrogen daily output file

*DSSAT Cropping System Model Ver. 4.7.2.000 -release      OCT 15, 2021; 17:59:35
                                                                                
*RUN   1        :             CSM335_date_1 MZCER047 ITSA1301    1              
 MODEL          : MZCER047 - Maize                                              
 EXPERIMENT     : ITSA1301 SG CALIBRATION SETUP OF SORGHUM SOWING DATES         
 DATA PATH      :                                                               
 TREATMENT  1   :             CSM335_date_1 MZCER047                            
  
!                                                    NO3 (ppm) by soil depth (cm):                   NH4 (ppm) by soil depth (cm):
!                                                     0-5    5-15   15-30   30-53   53-77  77-100     0-5    5-15   15-30   30-53   53-77  77-100
@YEAR DOY   DAS  NAPC  NI#M    NIAD   NITD   NHTD    NI1D    NI2D    NI3D    NI4D    NI5D    NI6D    NH1D    NH2D    NH3D    NH4D    NH5D    NH6D    NMNC    NITC    NDNC    NIMC    AMLC   NNMNC    NUCM    NLCC    TDFC
 2014 280     0     0     0     8.4    0.0    8.4    0.00    0.00    0.00    0.00    0.00    0.00    0.60    0.60    0.60    0.60    0.60    0.60    0.00    0.00    0.00    0.00    0.00    0.00    0.00    0.00    0.00
 2014 281     1     0     0     9.4    1.0    8.4    0.08    0.08    0.07    0.07    0.07    0.07    0.80    0.74    0.74    0.53    0.54    0.54    1.17    1.03    0.00    0.13    0.00    1.04    0.00    0.00    0.00
 2014 282     2     0     0    10.4    2.0    8.4    0.17    0.17    0.16    0.14    0.14    0.13    0.94    0.86    0.86    0.48    0.48    0.48    2.30    2.06    0.00    0.26    0.00    2.04    0.00    0.00    0.00
 2014 283     3    18     1    29.5    3.1   26.4    0.32    0.27    0.27    0.20    0.19    0.19   26.87    0.97    0.97    0.43    0.43    0.43    3.53    3.12    0.00    0.40    0.00    3.13    0.00    0.00    0.00
 2014 284     4    18     1    30.5    7.3   23.2    4.97    0.40    0.40    0.25    0.25    0.24   22.47    1.05    1.06    0.38    0.38    0.39    4.76    7.40    0.00    0.57    0.00    4.19    0.00    0.00    0.00
 2014 285     5    18     1    31.5   10.9   20.6    8.71    0.54    0.54    0.30    0.29    0.29   18.98    1.13    1.14    0.34    0.34    0.35    5.99   11.03    0.00    0.74    0.00    5.25    0.00    0.00    0.00
 2014 286     6    18     1    32.5   13.9   18.6   11.66    0.69    0.69    0.34    0.34    0.34   16.26    1.19    1.20    0.30    0.31    0.31    7.18   14.09    0.00    0.90    0.00    6.28    0.00    0.00    0.00
 2014 287     7    18     1    33.5   16.6   16.9   14.08    0.85    0.86    0.38    0.38    0.38   14.06    1.23    1.26    0.27    0.28    0.28    8.36   16.79    0.00    1.06    0.00    7.30    0.00    0.00    0.00
 2014 288     8    18     1    34.5   18.9   15.6   13.14    2.47    1.03    0.42    0.42    0.41   12.30    1.27    1.30    0.24    0.25    0.25    9.51   19.15    0.00    1.21    0.00    8.30    0.00    0.00    0.00
 2014 289     9    18     1    35.6   21.7   13.9   15.24    2.95    1.21    0.45    0.45    0.45   10.01    1.34    1.34    0.22    0.22    0.23   10.89   22.01    0.00    1.40    0.00    9.49    0.00    0.00    0.00
 2014 290    10    18     1    36.7   24.0   12.7   10.57    5.70    1.88    0.47    0.47    0.47    8.49    1.39    1.36    0.20    0.20    0.21   12.14   24.24    0.00    1.57    0.00   10.57    0.00    0.00    0.00
 2014 291    11    18     1    38.0   26.3   11.8   11.82    5.80    2.40    0.49    0.49    0.49    7.04    1.49    1.40    0.18    0.19    0.19   13.72   26.55    0.00    1.79    0.00   11.93    0.00    0.00    0.00
 2014 292    12    18     1    39.5   28.4   11.1    7.00    5.88    4.21    0.94    0.51    0.51    5.97    1.57    1.46    0.17    0.17    0.18   15.39   28.66    0.00    2.02    0.00   13.37    0.00    0.00    0.00
 2014 293    13    18     1    41.0   30.4   10.6    4.20    4.00    4.55    2.38    0.86    0.53    5.11    1.60    1.56    0.15    0.16    0.16   17.18   30.66    0.00    2.27    0.00   14.91    0.00    0.00    0.00
 2014 294    14    18     1    42.3   32.1   10.2    4.54    3.57    4.15    2.68    1.43    0.54    4.51    1.61    1.59    0.14    0.15    0.15   18.71   32.40    0.00    2.49    0.00   16.22    0.00    0.00    0.00
 2014 295    15    18     1    43.7   33.7   10.0    5.68    3.42    3.88    2.71    1.69    0.74    4.08    1.66    1.64    0.13    0.14    0.14   20.35   34.02    0.01    2.71    0.00   17.63    0.00    0.00    0.00
 2014 296    16    18     1    45.1   35.2    9.9    6.12    3.73    3.82    2.67    1.79    0.94    3.74    1.72    1.69    0.13    0.14    0.14   22.00   35.54    0.01    2.94    0.00   19.06    0.07    0.00    0.00
 2014 297    17    18     1    46.1   36.4    9.7    6.71    3.87    3.86    2.64    1.83    1.09    3.41    1.75    1.74    0.12    0.13    0.13   23.60   36.99    0.02    3.15    0.00   20.45    0.37    0.00    0.00
 2014 298    18    18     1    47.2   37.5    9.6    8.09    3.94    3.91    2.58    1.81    1.17    3.14    1.78    1.78    0.12    0.13    0.13   25.22   38.41    0.02    3.36    0.00   21.85    0.71    0.00    0.00
 2014 299    19    18     1    48.1   38.6    9.5    9.51    3.98    3.99    2.54    1.81    1.17    2.91    1.78    1.80    0.12    0.12    0.12   26.82   39.84    0.02    3.58    0.00   23.24    1.15    0.00    0.00
 2014 300    20    18     1    48.9   39.7    9.3    7.60    5.34    4.26    2.50    1.80    1.18    2.71    1.75    1.80    0.11    0.12    0.12   28.33   41.24    0.02    3.78    0.00   24.55    1.63    0.00    0.00
 2014 301    21    18     1    49.8   40.7    9.1    8.68    5.45    4.39    2.46    1.79    1.19    2.49    1.74    1.79    0.11    0.12    0.12   30.01   42.78    0.02    4.00    0.00   26.01    2.23    0.00    0.00
 2014 302    22    18     1    50.5   41.6    8.8   10.42    5.32    4.40    2.42    1.79    1.20    2.32    1.72    1.77    0.11    0.11    0.11   31.68   44.31    0.02    4.23    0.00   27.45    2.96    0.00    0.00
 2014 303    23    18     1    51.1   42.5    8.6    4.02    6.07    5.61    2.86    1.87    1.22    2.18    1.69    1.74    0.10    0.11    0.11   33.33   45.82    0.02    4.45    0.00   28.88    3.78    0.00    0.00
 2014 304    24    18     1    51.8   43.4    8.4    4.05    5.36    5.68    3.17    2.01    1.31    2.01    1.65    1.71    0.10    0.11    0.11   35.03   47.40    0.02    4.69    0.00   30.35    4.51    0.00    0.00
 2014 305    25    18     1    52.3   44.1    8.2    4.79    5.03    5.52    3.28    2.11    1.38    1.92    1.63    1.68    0.10    0.11    0.11   36.76   48.90    0.02    4.92    0.00   31.84    5.40    0.09    0.00
 2014 306    26    18     1    52.6   44.6    8.1    3.66    4.64    5.60    3.53    2.27    1.48    1.85    1.63    1.66    0.10    0.11    0.11   38.46   50.35    0.02    5.15    0.00   33.31    6.34    0.30    0.00
 2014 307    27    18     1    52.5   44.7    7.9    3.98    4.26    5.33    3.61    2.39    1.57    1.75    1.61    1.62    0.10    0.10    0.11   40.06   51.72    0.02    5.36    0.00   34.69    7.51    0.59    0.00
 2014 308    28    18     1    52.9   45.0    7.9    3.93    4.20    5.23    3.64    2.48    1.65    1.73    1.62    1.62    0.10    0.10    0.10   41.55   52.93    0.03    5.55    0.00   36.00    8.15    0.92    0.00
 2014 309    29    18     1    52.5   44.7    7.8    4.92    4.15    4.96    3.49    2.47    1.68    1.70    1.62    1.60    0.10    0.10    0.10   43.11   54.18    0.04    5.75    0.00   37.36    9.34    1.46    0.00
 2014 310    30    18     1    50.3   42.8    7.5    5.84    3.93    4.52    3.16    2.43    1.69    1.61    1.54    1.53    0.10    0.10    0.10   44.59   55.34    0.04    5.93    0.00   38.66   12.77    1.46    0.00
 2014 311    31    18     1    50.0   42.6    7.4    3.49    4.34    4.88    3.20    2.40    1.69    1.58    1.53    1.51    0.10    0.10    0.10   45.97   56.44    0.04    6.10    0.00   39.87   14.34    1.46    0.00
 2014 312    32    18     1    50.0   42.7    7.4    3.32    4.01    4.90    3.27    2.47    1.74    1.53    1.53    1.52    0.10    0.10    0.10   47.50   57.64    0.04    6.28    0.00   41.21   15.60    1.46    0.00
 2014 313    33    18     1    48.9   41.6    7.3    3.75    3.74    4.54    3.14    2.46    1.80    1.50    1.51    1.49    0.10    0.10    0.10   49.13   58.90    0.04    6.47    0.00   42.65   17.80    1.87    0.00
 2014 314    34    18     1    47.7   40.5    7.2    2.31    3.20    4.54    3.26    2.49    1.85    1.49    1.49    1.47    0.10    0.10    0.10   50.70   60.09    0.04    6.66    0.00   44.04   20.29    1.96    0.00
 2014 315    35    18     1    46.9   39.7    7.1    1.83    2.73    4.17    3.35    2.60    1.97    1.45    1.48    1.46    0.10    0.10    0.10   52.21   61.29    0.04    6.83    0.00   45.38   22.08    2.31    0.00
 2014 316    36    18     1    45.4   38.3    7.0    1.44    2.28    3.69    3.28    2.68    2.12    1.41    1.46    1.45    0.10    0.10    0.10   53.64   62.41    0.04    6.98    0.00   46.66   24.17    2.97    0.00
 2014 317    37    18     1    43.1   36.2    6.9    1.43    2.01    3.23    3.01    2.61    2.21    1.37    1.43    1.42    0.10    0.10    0.10   55.07   63.50    0.04    7.13    0.00   47.94   26.89    3.81    0.00
 2014 318    38    18     1    41.0   34.1    6.9    1.16    1.79    2.91    2.79    2.50    2.25    1.35    1.42    1.41    0.10    0.10    0.10   56.50   64.54    0.04    7.27    0.00   49.23   29.41    4.72    0.00
 2014 319    39    18     1    38.6   31.8    6.8    1.14    1.62    2.62    2.53    2.34    2.24    1.32    1.40    1.39    0.10    0.10    0.10   57.84   65.52    0.06    7.40    0.00   50.43   32.06    5.62    0.00
 2014 320    40    18     1    35.1   28.4    6.7    1.18    1.50    2.29    2.18    2.07    2.08    1.31    1.38    1.37    0.10    0.10    0.10   59.19   66.45    0.07    7.53    0.00   51.66   34.96    7.39    0.00
 2014 321    41    18     1    32.9   26.2    6.6    1.32    1.49    2.17    1.93    1.83    1.97    1.31    1.36    1.35    0.10    0.10    0.10   60.62   67.38    0.08    7.67    0.00   52.95   38.19    7.69    0.00
 2014 322    42    18     1    30.1   23.7    6.4    1.08    1.48    2.05    1.67    1.57    1.83    1.28    1.31    1.30    0.10    0.10    0.10   61.95   68.25    0.08    7.79    0.00   54.16   42.11    7.69    0.00
 2014 323    43    18     1    28.7   22.2    6.4    1.09    1.46    2.02    1.54    1.42    1.70    1.27    1.31    1.30    0.10    0.10    0.10   63.36   69.17    0.08    7.91    0.00   55.44   44.85    7.69    0.00
 2014 324    44    18     1    27.7   21.2    6.5    0.84    1.41    2.01    1.47    1.36    1.59    1.28    1.32    1.31    0.10    0.10    0.10   64.79   70.10    0.08    8.04    0.00   56.74   47.13    7.69    0.00
 2014 325    45    18     1    25.7   19.4    6.4    0.84    1.29    1.86    1.33    1.22    1.45    1.23    1.29    1.29    0.10    0.10    0.10   66.13   71.00    0.08    8.16    0.00   57.97   50.25    7.77    0.00
 2014 326    46    18     1    23.3   17.1    6.2    0.87    1.18    1.65    1.15    1.05    1.27    1.21    1.25    1.25    0.11    0.10    0.10   67.48   71.85    0.08    8.28    0.00   59.20   53.66    8.03    0.00
 2014 327    47    18     1    19.9   14.0    5.9    0.91    1.06    1.40    0.89    0.82    1.03    1.16    1.18    1.17    0.11    0.10    0.10   68.80   72.63    0.08    8.40    0.00   60.40   58.19    8.03    0.00
 2014 328    48    18     1    17.4   11.7    5.7    0.91    0.97    1.23    0.70    0.65    0.83    1.12    1.12    1.12    0.11    0.10    0.10   70.02   73.36    0.08    8.50    0.00   61.52   61.83    8.03    0.00
 2014 329    49    64     2    59.6    8.3   51.3    0.57    0.83    0.98    0.46    0.42    0.56   66.74    1.01    1.01    0.11    0.10    0.10   71.17   74.02    0.08    8.60    0.00   62.57   66.72    8.03    0.00
 2014 330    50    64     2    56.3   15.7   40.5   11.02    0.93    1.06    0.44    0.41    0.54   51.15    1.10    1.05    0.11    0.10    0.10   72.45   82.07    0.08    8.79    0.00   63.66   71.07    8.03    0.00
 2014 331    51    64     2    53.9   21.1   32.7   17.81    1.35    1.14    0.43    0.40    0.52   39.77    1.17    1.08    0.11    0.10    0.10   73.72   88.49    0.08    8.96    0.00   64.76   74.54    8.03    0.00
 2014 332    52    64     2    51.8   24.8   27.0   22.58    1.54    1.22    0.42    0.39    0.50   31.46    1.22    1.11    0.11    0.10    0.10   74.91   93.42    0.08    9.12    0.00   65.78   77.58    8.03    0.00
 2014 333    53    64     2    48.5   26.3   22.2    9.78    7.71    1.53    0.82    0.37    0.48   24.55    1.23    1.10    0.10    0.10    0.10   75.98   97.06    0.08    9.27    0.00   66.71   81.85    8.03    0.00
 2014 334    54    64     2    44.8   26.6   18.3   10.53    5.91    2.17    0.99    0.49    0.47   18.91    1.17    1.14    0.11    0.10    0.10   77.21  100.16    0.08    9.41    0.00   67.80   86.39    8.22    0.00
 2014 335    55    64     2    43.7   27.6   16.1   11.47    5.49    2.49    1.06    0.52    0.47   15.65    1.18    1.19    0.11    0.10    0.10   78.42  102.63    0.08    9.56    0.00   68.86   88.45    8.31    0.00
 2014 336    56    64     2    39.0   25.8   13.2   11.95    4.81    2.30    0.92    0.46    0.42   11.68    1.14    1.17    0.11    0.10    0.10   79.63  104.72    0.08    9.70    0.00   69.93   94.21    8.31    0.00
 2014 337    57    64     2    36.6   25.1   11.5    7.98    5.65    2.87    0.88    0.43    0.40    9.29    1.14    1.16    0.11    0.10    0.10   80.81  106.48    0.08    9.84    0.00   70.97   97.62    8.31    0.00
 2014 338    58    64     2    35.5   25.0   10.4    7.29    5.34    3.20    0.96    0.42    0.39    7.60    1.15    1.19    0.11    0.10    0.10   82.02  108.10    0.08    9.98    0.00   72.04   99.86    8.31    0.00
 2014 339    59    64     2    33.8   24.3    9.5    6.81    4.96    3.25    0.98    0.42    0.37    6.18    1.14    1.20    0.11    0.10    0.10   83.22  109.51    0.08   10.12    0.00   73.10  102.62    8.31    0.00
 2014 340    60    64     2    28.0   20.0    7.9    5.96    3.97    2.71    0.77    0.34    0.31    4.38    1.07    1.12    0.11    0.10    0.10   84.45  110.71    0.08   10.26    0.00   74.19  109.50    8.31    0.00
 2014 341    61    64     2    21.9   15.2    6.6    4.84    2.89    2.05    0.55    0.26    0.26    3.01    0.98    1.02    0.11    0.10    0.10   85.59  111.63    0.08   10.39    0.00   75.21  116.60    8.31    0.00
 2014 342    62    64     2    17.4   11.6    5.7    3.75    2.06    1.52    0.36    0.27    0.27    2.16    0.91    0.93    0.11    0.10    0.10   86.65  112.40    0.08   10.49    0.00   76.16  122.06    8.31    0.00
 2014 343    63    64     2    13.8    8.7    5.0    2.50    1.56    1.05    0.27    0.27    0.27    1.65    0.82    0.84    0.11    0.10    0.10   87.61  113.07    0.08   10.58    0.00   77.03  126.48    8.31    0.00
 2014 344    64    64     2    11.3    6.8    4.5    1.00    1.22    0.84    0.27    0.27    0.27    1.13    0.78    0.78    0.10    0.10    0.10   88.62  113.72    0.08   10.67    0.00   77.95  129.92    8.31    0.00
 2014 345    65    64     2     9.7    5.4    4.3    0.56    0.68    0.68    0.27    0.27    0.27    0.91    0.79    0.75    0.10    0.10    0.10   89.73  114.32    0.08   10.76    0.00   78.96  132.53    8.31    0.00
 2014 346    66    64     2     8.8    4.7    4.2    0.38    0.44    0.56    0.27    0.27    0.27    0.85    0.79    0.73    0.10    0.10    0.09   90.79  114.88    0.08   10.85    0.00   79.94  134.34    8.31    0.00
 2014 347    67    64     2     8.4    4.3    4.1    0.36    0.35    0.48    0.26    0.26    0.26    0.82    0.78    0.71    0.10    0.10    0.09   91.76  115.40    0.08   10.93    0.00   80.83  135.62    8.31    0.00
 2014 348    68    64     2     8.2    4.2    4.0    0.35    0.34    0.43    0.26    0.26    0.26    0.80    0.75    0.69    0.10    0.10    0.09   92.56  115.88    0.08   11.00    0.00   81.56  136.58    8.31    0.00
 2014 349    69    64     2     8.0    4.1    3.9    0.33    0.33    0.40    0.26    0.26    0.26    0.79    0.73    0.67    0.10    0.09    0.09   93.24  116.33    0.08   11.05    0.00   82.19  137.37    8.31    0.00
 2014 350    70    64     2     7.9    4.1    3.8    0.34    0.33    0.38    0.26    0.26    0.26    0.79    0.70    0.66    0.10    0.09    0.09   93.85  116.77    0.08   11.10    0.00   82.75  138.04    8.31    0.00
 2014 351    71    64     2     7.8    4.1    3.8    0.36    0.32    0.37    0.26    0.26    0.26    0.79    0.68    0.65    0.09    0.09    0.09   94.41  117.19    0.08   11.15    0.00   83.26  138.64    8.31    0.00
 2014 352    72    64     2     7.8    4.1    3.7    0.37    0.33    0.37    0.26    0.26    0.26    0.78    0.66    0.64    0.09    0.09    0.09   94.94  117.60    0.08   11.19    0.00   83.75  139.20    8.31    0.00
 2014 353    73    64     2     7.7    4.1    3.6    0.39    0.33    0.37    0.26    0.26    0.26    0.78    0.64    0.62    0.09    0.09    0.09   95.41  117.98    0.08   11.23    0.00   84.18  139.70    8.31    0.00
 2014 354    74    64     2     7.6    4.1    3.6    0.34    0.37    0.37    0.26    0.26    0.26    0.78    0.63    0.61    0.09    0.09    0.09   95.82  118.34    0.08   11.27    0.00   84.55  140.12    8.31    0.00
 2014 355    75    64     2     7.6    4.1    3.5    0.35    0.36    0.37    0.26    0.26    0.26    0.79    0.63    0.60    0.08    0.08    0.09   96.39  118.72    0.08   11.32    0.00   85.07  140.69    8.31    0.00
 2014 356    76    64     2     7.5    4.1    3.5    0.35    0.34    0.37    0.26    0.26    0.26    0.78    0.63    0.58    0.08    0.08    0.08   96.90  119.09    0.08   11.36    0.00   85.54  141.23    8.31    0.00
 2014 357    77    64     2     7.4    4.0    3.4    0.34    0.33    0.38    0.26    0.26    0.26    0.78    0.62    0.57    0.08    0.08    0.08   97.33  119.43    0.08   11.40    0.00   85.93  141.70    8.31    0.00
 2014 358    78    64     2     7.4    4.1    3.3    0.35    0.33    0.39    0.26    0.26    0.26    0.77    0.61    0.56    0.08    0.08    0.08   97.70  119.75    0.08   11.43    0.00   86.27  142.08    8.31    0.00
 2014 359    79    64     2     7.4    4.1    3.3    0.37    0.34    0.39    0.26    0.26    0.26    0.77    0.60    0.55    0.08    0.08    0.08   98.02  120.05    0.08   11.46    0.00   86.56  142.40    8.31    0.00
 2014 360    80    64     2     7.3    4.1    3.2    0.33    0.34    0.40    0.26    0.26    0.26    0.76    0.59    0.54    0.07    0.07    0.08   98.36  120.34    0.08   11.49    0.00   86.87  142.80    8.31    0.00
 2014 361    81    64     2     7.2    4.1    3.1    0.35    0.34    0.40    0.26    0.26    0.26    0.76    0.57    0.52    0.07    0.07    0.07   98.63  120.60    0.08   11.51    0.00   87.12  143.07    8.31    0.00
 2014 362    82    64     2     7.2    4.2    3.1    0.39    0.36    0.42    0.26    0.26    0.26    0.76    0.55    0.51    0.07    0.07    0.07   98.84  120.85    0.08   11.53    0.00   87.31  143.27    8.31    0.00
 2014 363    83    64     2     7.2    4.3    3.0    0.45    0.37    0.43    0.26    0.26    0.26    0.77    0.53    0.49    0.07    0.07    0.07   99.02  121.09    0.08   11.55    0.00   87.47  143.42    8.31    0.00
 2014 364    84    64     2     7.2    4.4    2.9    0.50    0.40    0.45    0.26    0.26    0.26    0.77    0.51    0.47    0.06    0.07    0.07   99.16  121.32    0.08   11.56    0.00   87.59  143.54    8.31    0.00
 2014 365    85    64     2     7.2    4.5    2.8    0.56    0.42    0.48    0.26    0.26    0.26    0.76    0.48    0.44    0.06    0.06    0.07   99.27  121.55    0.08   11.57    0.00   87.70  143.64    8.31    0.00
 2015 001    86    64     2     7.3    4.6    2.6    0.61    0.45    0.50    0.26    0.26    0.26    0.75    0.45    0.42    0.06    0.06    0.06   99.38  121.77    0.08   11.59    0.00   87.80  143.73    8.31    0.00
 2015 002    87    64     2     7.3    4.8    2.5    0.66    0.48    0.53    0.26    0.26    0.26    0.74    0.43    0.39    0.06    0.06    0.06   99.48  121.97    0.08   11.60    0.00   87.89  143.73    8.31    0.00
 2015 003    88    64     2     7.4    5.0    2.4    0.71    0.51    0.56    0.27    0.27    0.27    0.72    0.40    0.37    0.06    0.06    0.06   99.57  122.16    0.08   11.60    0.00   87.97  143.73    8.31    0.00
 2015 004    89    64     2     7.5    5.2    2.3    0.75    0.54    0.59    0.27    0.27    0.27    0.70    0.38    0.36    0.05    0.05    0.06   99.66  122.34    0.08   11.61    0.00   88.04  143.73    8.31    0.00
 2015 005    90    64     2     7.7    5.4    2.3    0.85    0.57    0.61    0.28    0.28    0.28    0.77    0.36    0.34    0.05    0.05    0.05   99.84  122.54    0.08   11.63    0.00   88.21  143.73    8.31    0.00
 2015 006    91    64     2     7.8    5.6    2.2    0.92    0.59    0.64    0.28    0.28    0.28    0.77    0.34    0.32    0.05    0.05    0.05   99.96  122.73    0.08   11.64    0.00   88.32  143.73    8.31    0.00
 2015 007    92    64     2     7.9    5.7    2.1    0.98    0.62    0.66    0.28    0.29    0.29    0.77    0.33    0.31    0.05    0.05    0.05  100.06  122.89    0.08   11.65    0.00   88.41  143.73    8.31    0.00
 2015 008    93    64     2     7.9    5.9    2.0    1.03    0.64    0.68    0.29    0.29    0.29    0.76    0.31    0.29    0.04    0.05    0.05  100.16  123.05    0.08   11.66    0.00   88.49  143.73    8.31    0.00
 2015 009    94    64     2     8.0    6.0    2.0    1.09    0.66    0.70    0.29    0.29    0.30    0.75    0.30    0.28    0.04    0.05    0.05  100.24  123.20    0.08   11.67    0.00   88.57  143.73    8.31    0.00
 2015 010    95    64     2     8.1    6.2    1.9    0.78    0.85    0.72    0.29    0.30    0.30    0.73    0.29    0.27    0.04    0.04    0.05  100.32  123.33    0.08   11.68    0.00   88.64  143.73    8.31    0.00
 2015 011    96    64     2     8.4    6.4    2.0    0.55    1.03    0.76    0.30    0.30    0.30    0.86    0.30    0.26    0.04    0.04    0.04  100.62  123.53    0.08   11.71    0.00   88.91  143.73    8.31    0.00
 2015 012    97    64     2     8.9    6.6    2.3    0.60    1.00    0.87    0.30    0.30    0.31    0.93    0.52    0.25    0.04    0.04    0.04  101.25  123.79    0.08   11.77    0.00   89.48  143.73    8.31    0.00
 2015 013    98    64     2     9.6    7.0    2.6    0.72    1.04    0.95    0.30    0.31    0.31    1.00    0.69    0.28    0.04    0.04    0.04  101.99  124.12    0.08   11.84    0.00   90.15  143.73    8.31    0.00
 2015 014    99    64     2    10.3    7.3    2.9    0.94    1.14    0.97    0.30    0.31    0.31    1.08    0.79    0.34    0.03    0.04    0.04  102.73  124.48    0.08   11.91    0.00   90.82  143.73    8.31    0.00
 2015 015   100    64     2    10.8    7.7    3.1    1.18    1.23    0.99    0.30    0.31    0.32    1.12    0.83    0.38    0.03    0.04    0.04  103.30  124.83    0.08   11.97    0.00   91.33  143.73    8.31    0.00
 2015 016   101    64     2    11.1    8.0    3.2    1.31    1.31    1.03    0.31    0.31    0.32    1.13    0.83    0.41    0.03    0.04    0.04  103.72  125.15    0.08   12.01    0.00   91.71  143.73    8.31    0.00
 2015 017   102    64     2    11.4    8.3    3.1    1.42    1.38    1.06    0.31    0.32    0.32    1.11    0.80    0.43    0.03    0.03    0.04  103.99  125.43    0.08   12.04    0.00   91.95  143.73    8.31    0.00
 2015 018   103    64     2    11.6    8.5    3.0    1.53    1.44    1.10    0.31    0.32    0.33    1.08    0.76    0.43    0.03    0.03    0.04  104.20  125.70    0.08   12.06    0.00   92.14  143.73    8.31    0.00
 2015 019   104    64     2    11.7    8.8    2.9    1.65    1.51    1.14    0.31    0.32    0.33    1.06    0.72    0.42    0.03    0.03    0.03  104.39  125.98    0.08   12.08    0.00   92.31  143.73    8.31    0.00
 2015 020   105    64     2    11.9    9.1    2.8    0.42    1.39    1.74    0.32    0.32    0.33    1.04    0.67    0.40    0.03    0.03    0.03  104.54  126.24    0.08   12.10    0.00   92.44  143.73    8.31    0.00
 2015 021   106    64     2    12.6    9.5    3.1    0.56    1.23    2.00    0.32    0.33    0.33    1.06    0.80    0.48    0.02    0.03    0.03  105.41  126.68    0.08   12.18    0.00   93.23  143.73    8.31    0.00
 2015 022   107    64     2    13.7   10.0    3.6    0.59    1.24    2.14    0.37    0.33    0.34    1.10    0.91    0.62    0.02    0.03    0.03  106.55  127.21    0.08   12.30    0.00   94.25  143.73    8.31    0.00
 2015 023   108    64     2    14.7   10.6    4.1    0.72    1.29    2.22    0.45    0.33    0.34    1.12    0.99    0.77    0.02    0.03    0.03  107.68  127.80    0.08   12.43    0.00   95.25  143.73    8.31    0.00
 2015 024   109    64     2    15.7   11.3    4.4    0.88    1.43    2.38    0.45    0.33    0.34    1.16    1.07    0.87    0.02    0.03    0.03  108.79  128.45    0.08   12.55    0.00   96.25  143.73    8.31    0.00
 2015 025   110    64     2    16.6   11.9    4.7    1.03    1.58    2.54    0.45    0.33    0.34    1.19    1.12    0.96    0.02    0.03    0.03  109.87  129.13    0.08   12.67    0.00   97.21  143.73    8.31    0.00
 2015 026   111    64     2    17.5   12.6    4.9    1.23    1.78    2.67    0.45    0.33    0.34    1.22    1.17    1.03    0.02    0.02    0.03  110.91  129.82    0.08   12.78    0.00   98.12  143.73    8.31    0.00
 2015 027   112    64     2    18.3   13.3    5.0    1.54    1.95    2.78    0.45    0.33    0.34    1.24    1.19    1.07    0.02    0.02    0.03  111.84  130.53    0.08   12.89    0.00   98.95  143.73    8.31    0.00
 2015 028   113    64     2    19.0   14.0    5.0    1.73    2.11    2.92    0.45    0.34    0.35    1.24    1.19    1.08    0.02    0.02    0.03  112.62  131.21    0.08   12.98    0.00   99.64  143.73    8.31    0.00
 2015 029   114    64     2    19.6   14.6    5.0    1.90    2.26    3.05    0.45    0.34    0.35    1.22    1.16    1.06    0.02    0.02    0.03  113.22  131.82    0.08   13.05    0.00  100.17  143.73    8.31    0.00
 2015 030   115    64     2    20.0   15.2    4.8    2.05    2.38    3.17    0.46    0.34    0.35    1.20    1.12    1.03    0.02    0.02    0.03  113.69  132.38    0.08   13.11    0.00  100.59  143.73    8.31    0.00
 2015 031   116    64     2    20.3   15.7    4.6    2.20    2.50    3.28    0.46    0.34    0.35    1.16    1.06    0.99    0.02    0.02    0.02  114.05  132.90    0.08   13.15    0.00  100.90  143.73    8.31    0.00
 2015 032   117    64     2    20.5   16.1    4.3    2.34    2.60    3.37    0.46    0.34    0.35    1.13    0.99    0.93    0.02    0.02    0.02  114.28  133.36    0.08   13.17    0.00  101.10  143.73    8.31    0.00
 2015 033   118    64     2    20.6   16.5    4.1    2.46    2.69    3.46    0.46    0.35    0.36    1.09    0.92    0.87    0.02    0.02    0.02  114.45  133.77    0.08   13.20    0.00  101.26  143.73    8.31    0.00
 2015 034   119    64     2    20.7   16.9    3.8    2.58    2.76    3.53    0.46    0.35    0.36    1.05    0.85    0.81    0.02    0.02    0.02  114.59  134.14    0.08   13.21    0.00  101.38  143.73    8.31    0.00
 2015 035   120    64     2    20.8   17.2    3.6    2.69    2.83    3.60    0.47    0.35    0.36    1.01    0.79    0.75    0.02    0.02    0.02  114.69  134.47    0.08   13.22    0.00  101.47  143.73    8.31    0.00
 2015 036   121    64     2    20.9   17.5    3.4    2.79    2.89    3.66    0.47    0.35    0.36    0.98    0.73    0.70    0.02    0.02    0.02  114.77  134.76    0.08   13.23    0.00  101.54  143.73    8.31    0.00
 2015 037   122    64     2    21.0   17.8    3.2    2.88    2.94    3.71    0.47    0.35    0.36    0.94    0.68    0.65    0.02    0.02    0.02  114.83  135.03    0.08   13.24    0.00  101.59  143.73    8.31    0.00
 2015 038   123    64     2    21.0   18.0    3.0    2.97    2.98    3.76    0.47    0.35    0.37    0.90    0.63    0.61    0.02    0.02    0.02  114.89  135.27    0.08   13.25    0.00  101.65  143.73    8.31    0.00
 2015 039   124    64     2    21.1   18.3    2.8    3.06    3.02    3.80    0.47    0.35    0.37    0.87    0.59    0.57    0.02    0.02    0.02  114.95  135.49    0.08   13.25    0.00  101.70  143.73    8.31    0.00
 2015 040   125    64     2    21.1   18.5    2.7    3.16    3.06    3.84    0.47    0.35    0.37    0.85    0.55    0.53    0.02    0.01    0.02  115.04  135.72    0.08   13.26    0.00  101.78  143.73    8.31    0.00
 2015 041   126    64     2    21.2   18.7    2.5    3.27    3.10    3.88    0.48    0.36    0.37    0.83    0.51    0.49    0.02    0.01    0.02  115.13  135.95    0.08   13.27    0.00  101.85  143.73    8.31    0.00
 2015 042   127    64     2    21.4   19.0    2.4    3.44    3.13    3.92    0.48    0.36    0.37    0.88    0.48    0.46    0.02    0.01    0.02  115.31  136.20    0.08   13.29    0.00  102.01  143.73    8.31    0.00
 2015 043   128    64     2    21.4   19.2    2.3    3.55    3.16    3.95    0.48    0.36    0.37    0.86    0.45    0.43    0.02    0.01    0.02  115.39  136.40    0.08   13.30    0.00  102.09  143.73    8.31    0.00
 2015 044   129    64     2    21.5   19.3    2.2    3.65    3.19    3.98    0.48    0.36    0.37    0.84    0.42    0.41    0.02    0.01    0.02  115.47  136.58    0.08   13.31    0.00  102.16  143.73    8.31    0.00
 2015 045   130    64     2    21.6   19.5    2.1    3.75    3.21    4.01    0.48    0.36    0.38    0.81    0.39    0.38    0.02    0.01    0.02  115.54  136.76    0.08   13.32    0.00  102.22  143.73    8.31    0.00
 2015 046   131    64     2    21.6   19.7    2.0    3.85    3.23    4.04    0.48    0.36    0.38    0.80    0.37    0.36    0.02    0.01    0.02  115.62  136.92    0.08   13.33    0.00  102.29  143.73    8.31    0.00
 2015 047   132    64     2    21.8   19.9    1.9    3.98    3.25    4.06    0.48    0.36    0.38    0.82    0.35    0.34    0.02    0.01    0.01  115.75  137.10    0.08   13.34    0.00  102.41  143.73    8.31    0.00
 2015 048   133    64     2    21.8   20.0    1.8    1.25    4.20    4.41    0.49    0.36    0.38    0.82    0.33    0.32    0.01    0.01    0.01  115.85  137.27    0.08   13.35    0.00  102.50  143.73    8.31    0.00
 2015 049   134    64     2    22.4   20.3    2.1    1.27    3.53    4.97    0.48    0.36    0.38    0.86    0.51    0.31    0.01    0.01    0.01  116.44  137.53    0.08   13.42    0.00  103.02  143.73    8.31    0.00
 2015 050   135    64     2    23.0   20.6    2.4    1.58    3.68    4.93    0.48    0.36    0.38    0.93    0.62    0.36    0.01    0.01    0.01  117.15  137.85    0.08   13.51    0.00  103.64  143.73    8.31    0.00
 2015 051   136    64     2    23.5   20.9    2.6    2.27    3.78    4.79    0.48    0.36    0.38    0.97    0.68    0.39    0.01    0.01    0.01  117.71  138.16    0.08   13.57    0.00  104.14  143.73    8.31    0.00
 2015 052   137    64     2    23.9   21.2    2.7    2.44    3.85    4.83    0.48    0.36    0.38    0.99    0.71    0.42    0.01    0.01    0.01  118.18  138.46    0.08   13.63    0.00  104.55  143.73    8.31    0.00
 2015 053   138    64     2    24.2   21.5    2.7    2.60    3.91    4.86    0.48    0.36    0.38    1.00    0.72    0.44    0.01    0.01    0.01  118.57  138.74    0.08   13.68    0.00  104.89  143.73    8.31    0.00
 2015 054   139    64     2    24.5   21.7    2.7    1.84    4.41    4.90    0.48    0.36    0.38    0.99    0.70    0.45    0.01    0.01    0.01  118.85  139.00    0.08   13.72    0.00  105.13  143.73    8.31    0.00
 2015 055   140    64     2    24.8   22.1    2.8    1.88    4.56    4.93    0.48    0.36    0.38    1.03    0.71    0.45    0.01    0.01    0.01  119.26  139.33    0.08   13.77    0.00  105.49  143.73    8.31    0.00
 2015 056   141    64     2    25.2   22.4    2.8    2.31    4.63    4.89    0.48    0.36    0.38    1.07    0.73    0.44    0.01    0.01    0.01  119.64  139.63    0.08   13.81    0.00  105.83  143.73    8.31    0.00
 2015 057   142    64     2    25.4   22.6    2.8    2.50    4.68    4.92    0.48    0.36    0.38    1.08    0.73    0.43    0.01    0.01    0.01  119.95  139.91    0.08   13.85    0.00  106.10  143.73    8.31    0.00
 2015 058   143    64     2    25.6   22.9    2.7    2.64    4.74    4.95    0.48    0.36    0.38    1.06    0.71    0.43    0.01    0.01    0.01  120.16  140.16    0.08   13.88    0.00  106.29  143.73    8.31    0.00
 2015 059   144    64     2    25.8   23.1    2.6    2.80    4.78    4.98    0.48    0.37    0.38    1.04    0.68    0.41    0.01    0.01    0.01  120.34  140.39    0.08   13.90    0.00  106.44  143.73    8.31    0.00
 2015 060   145    64     2    25.9   23.3    2.6    2.95    4.82    5.01    0.48    0.37    0.38    1.05    0.65    0.40    0.01    0.01    0.01  120.52  140.62    0.08   13.92    0.00  106.60  143.73    8.31    0.00
 2015 061   146    64     2    26.0   23.5    2.5    3.09    4.85    5.03    0.48    0.37    0.39    1.03    0.62    0.38    0.01    0.01    0.01  120.64  140.82    0.08   13.94    0.00  106.71  143.73    8.31    0.00
 2015 062   147    64     2    26.1   23.7    2.4    3.22    4.88    5.05    0.48    0.37    0.39    1.01    0.59    0.36    0.01    0.01    0.01  120.74  141.01    0.08   13.95    0.00  106.79  143.73    8.31    0.00
