*SOIL INORGANIC N BALANCE

*DSSAT Cropping System Model Ver. 4.7.2.000 -release      OCT 15, 2021; 17:59:35
                                                                                
*RUN   1        :             CSM335_date_1 MZCER047 ITSA1301    1              
 MODEL          : MZCER047 - Maize                                              
 EXPERIMENT     : ITSA1301 SG CALIBRATION SETUP OF SORGHUM SOWING DATES         
 DATA PATH      :                                                               
 TREATMENT  1   :             CSM335_date_1 MZCER047                            
  


!SOIL INORGANIC N BALANCE                         Initial               Final
!                                                Year/Doy            Year/Doy
!                                                2014/281            2015/062
!                                               (kg[N]/ha)          (kg[N]/ha)
! Soil N state variables:
!   Soil NO3                                         0.00               23.73
!   Soil NH4                                         8.40                2.39
!   Soil Urea                                        0.00                0.00
!   Soil N gases                                     0.00                0.01

! N additions:
!   Fertilizer N                                    64.00
!   Mineralized N                                  120.74

! N subtractions:
!   N immobilized                                                       13.95
!   N leached                                                            8.31
!   N loss to tile drainage                                              0.00
!   N Uptake From Soil                                                 143.73
!   NH3 loss                                                             0.00
!   N2O loss                                                             0.15
!   N2 loss                                                              0.07
!   NO loss                                                              0.81

!   Total N balance                                193.14              193.14
!   Balance                                                             0.000
