*SIMULATION OVERVIEW FILE

*DSSAT Cropping System Model Ver. 4.7.2.000 -release      OCT 15, 2021; 17:59:32
                                                                                
*RUN   1        :             CSM335_date_1 MZCER047 ITSA1301    1              
 MODEL          : MZCER047 - Maize                                              
 EXPERIMENT     : ITSA1301 SG CALIBRATION SETUP OF SORGHUM SOWING DATES         
 DATA PATH      :                                                               
 TREATMENT  1   :             CSM335_date_1 MZCER047                            
                                                                                
                                                                                
 CROP           : Maize            CULTIVAR : APPOLO(ETH)      ECOTYPE :IB0006  
 STARTING DATE  : MAY  8 2014                                                   
 PLANTING DATE  : JUN 10 2014        PLANTS/m2 :  4.1     ROW SPACING :  75.cm  
 HARVEST DATE   : DEC 29 2014                                                   
 WEATHER        : ETBA   2014                                                   
 SOIL           : XXETBA0101     TEXTURE : SL    -                              
 SOIL INITIAL C : DEPTH:120cm EXTR. H2O:156.0mm  NO3:  0.0kg/ha  NH4: 10.2kg/ha 
 WATER BALANCE  : RAINFED                                                       
 IRRIGATION     : NOT IRRIGATED                                                 
 NITROGEN BAL.  : SOIL-N & N-UPTAKE SIMULATION; NO N-FIXATION                   
 N-FERTILIZER   :       87 kg/ha IN     3 APPLICATIONS                          
 RESIDUE/MANURE : INITIAL :     0 kg/ha ;       0 kg/ha IN     0 APPLICATIONS   
 ENVIRONM. OPT. : DAYL=    0.00  SRAD=    0.00  TMAX=    0.00  TMIN=    0.00    
                  RAIN=    0.00  CO2 =    0.00  DEW =    0.00  WIND=    0.00    
 SIMULATION OPT : WATER   :Y  NITROGEN:Y  N-FIX:N  PHOSPH :N  PESTS  :N         
                  PHOTO   :R  ET      :R  INFIL:S  HYDROL :R  SOM    :P         
                  CO2 398ppm  NSWIT   :1  EVAP :S  SOIL   :2  STEMP  :D         
 MANAGEMENT OPT : PLANTING:R  IRRIG   :N  FERT :R  RESIDUE:N  HARVEST:R         
                  WEATHER :M  TILLAGE :N                                        
                                                                                
*SUMMARY OF SOIL AND GENETIC INPUT PARAMETERS                                   
                                                                                
   SOIL LOWER UPPER   SAT  EXTR  INIT   ROOT   BULK     pH    NO3    NH4    ORG 
  DEPTH LIMIT LIMIT    SW    SW    SW   DIST   DENS                          C  
   cm   cm3/cm3    cm3/cm3    cm3/cm3         g/cm3         ugN/g  ugN/g     %  
------------------------------------------------------------------------------- 
  0-  5 0.243 0.373 0.445 0.130 0.240   1.00   1.42   5.00   0.00   0.60   1.80 
  5- 15 0.243 0.373 0.445 0.130 0.240   1.00   1.42   5.00   0.00   0.60   1.80 
 15- 30 0.243 0.373 0.445 0.130 0.240   1.00   1.42   5.00   0.00   0.60   1.80 
 30- 60 0.243 0.373 0.445 0.130 0.240   1.00   1.42   5.00   0.00   0.60 -99.00 
 60- 90 0.243 0.373 0.445 0.130 0.240   1.00   1.42   5.00   0.00   0.60 -99.00 
 90-120 0.243 0.373 0.445 0.130 0.240   1.00   1.42   5.00   0.00   0.60 -99.00 
                                                                                
TOT-120  29.2  44.8  53.4  15.6  28.8  <--cm   -  kg/ha-->    0.0   10.2  76680 
SOIL ALBEDO    : 0.20      EVAPORATION LIMIT : 6.00         MIN. FACTOR  : 1.00 
RUNOFF CURVE # :30.00      DRAINAGE RATE     : 0.60         FERT. FACTOR : 1.00 
                                                                                
 Maize      CULTIVAR :IM0006-APPOLO(ETH)        ECOTYPE :IB0006                 
 P1     : 340.00  P2     : 0.4000  P5     : 580.00                              
 G2     : 455.00  G3     : 13.000  PHINT  : 70.000                              


*SIMULATED CROP AND SOIL STATUS AT MAIN DEVELOPMENT STAGES

 RUN NO.     1                 CSM335_date_

        CROP GROWTH     BIOMASS         LEAF   CROP N     STRESS      STRESS                                           
   DATE  AGE STAGE        kg/ha    LAI   NUM  kg/ha  %   H2O  Nitr Phos1 Phos2  RSTG                                   
 ------  --- ----------   -----  -----  ----  ---  ---  ----  ----  ----  ----  ----                                   
  8 MAY    0 Start Sim        0   0.00   0.0    0  0.0  0.00  0.00  0.00  0.00     7
 10 JUN    0 Sowing           0   0.00   0.0    0  0.0  0.00  0.00  0.00  0.00     8
 11 JUN    1 Germinate        0   0.00   0.0    0  0.0  0.00  0.00  0.00  0.00     9
 16 JUN    6 Emergence       16   0.00   1.8    1  4.4  0.00  0.01  0.00  0.00     1
 10 JUL   30 End Juveni      71   0.15   7.3    3  3.7  0.00  0.00  0.00  0.00     2
 15 JUL   35 Floral Ini     117   0.23   8.3    4  3.6  0.00  0.00  0.00  0.00     3
 20 SEP  102 75% Silkin    4528   2.20  17.6   89  2.0  0.00  0.00  0.00  0.00     4
  3 OCT  115 Beg Gr Fil    7264   2.05  17.6   89  1.2  0.00  0.00  0.00  0.00     5
  3 NOV  146 End Gr Fil   12513   0.95  17.6  134  1.1  0.00  0.00  0.00  0.00     6
  6 NOV  149 Maturity     12513   0.95  17.6  134  1.1  0.00  0.00  0.00  0.00    10
 29 DEC  202 Harvest      12513   0.95  17.6  134  1.1  0.00  0.00  0.00  0.00    10


*MAIN GROWTH AND DEVELOPMENT VARIABLES

@     VARIABLE                                         SIMULATED     MEASURED
      --------                                         ---------     --------
      Anthesis day (dap)                                     102          -99
      Physiological maturity day (dap)                       149          -99
      Yield at harvest maturity (kg [dm]/ha)                5424          -99
      Number at maturity (no/m2)                            1346          -99
      Unit wt at maturity (g [dm]/unit)                   0.4030          -99
      Number at maturity (no/unit)                         328.3          -99
      Tops weight at maturity (kg [dm]/ha)                 12513          -99
      By-product produced (stalk) at maturity (kg[dm]/ha    7126          -99
      Leaf area index, maximum                              2.31          -99
      Harvest index at maturity                            0.433          -99
      Grain N at maturity (kg/ha)                             92          -99
      Tops N at maturity (kg/ha)                             134          -99
      Stem N at maturity (kg/ha)                              42          -99
      Grain N at maturity (%)                                1.7          -99
      Tops weight at anthesis (kg [dm]/ha)                  4274          -99
      Tops N at anthesis (kg/ha)                              85          -99
      Leaf number per stem at maturity                     17.63          -99
      Emergence day (dap)                                      6          -99


*ENVIRONMENTAL AND STRESS FACTORS

 |-----Development Phase------|--------------------------------------Environment--------------------------------------|-----------------Stress-----------------|
                              |---------------Average--------------|-----Cumulative-----|--------Count of days--------|          (0=Min, 1=Max Stress)         |
                         Time  Temp  Temp  Temp Solar Photop                Evapo    Pot TMIN TMIN TMAX TMAX TMAX RAIN|----Water----|---Nitrogen--|-Phosphorus-|
                         Span   Max   Min  Mean   Rad  [day]    CO2   Rain  Trans     ET   <    <    >    >    >    >   Photo         Photo         Photo
                         days    øC    øC    øC MJ/m2     hr    ppm     mm     mm     mm  0øC  2øC 30øC 32øC 34øC  0mm  synth Growth  synth Growth  synth Growth
----------------------------------------------------------------------------------------------------------------------------------------------------------------
 Emergence-End Juvenile    24  26.9  15.6  21.3  19.3  12.53  398.5  181.3  107.2  115.1    0    0    0    0    0   22  0.000  0.000  0.002  0.005  0.000  0.000
 End Juvenil-Floral Init    5  27.0  14.9  20.9  18.1  12.50  398.5   32.7   22.1   22.1    0    0    0    0    0    4  0.000  0.000  0.001  0.002  0.000  0.000
 Floral Init-End Lf Grow   67  25.3  14.7  20.0  15.8  12.27  398.8  520.2  238.9  240.0    0    0    0    0    0   58  0.000  0.000  0.000  0.000  0.000  0.000
 End Lf Grth-Beg Grn Fil   13  27.2  14.7  20.9  20.1  11.95  399.0   54.1   58.1   58.5    0    0    0    0    0   12  0.000  0.000  0.000  0.000  0.000  0.000
 Grain Filling Phase       31  27.3  13.0  20.1  21.6  11.77  399.1   93.9  136.0  149.2    0    0    1    0    0   10  0.000  0.000  0.000  0.000  0.000  0.000
   
 Planting to Harvest      202  26.5  13.7  20.1  19.1  12.01  398.9  955.5  713.1  876.3    0    0    2    0    0  121  0.000  0.000  0.000  0.001  0.000  0.000
----------------------------------------------------------------------------------------------------------------------------------------------------------------


*Resource Productivity
 Growing season length: 202 days 

 Precipitation during growing season       955.5 mm[rain]
   Dry Matter Productivity                  1.31 kg[DM]/m3[rain]          =   13.1 kg[DM]/ha per mm[rain]
   Yield Productivity                       0.57 kg[grain yield]/m3[rain] =    5.7 kg[yield]/ha per mm[rain]

 Evapotranspiration during growing season  713.1 mm[ET]
   Dry Matter Productivity                  1.75 kg[DM]/m3[ET]            =   17.5 kg[DM]/ha per mm[ET]
   Yield Productivity                       0.76 kg[grain yield]/m3[ET]   =    7.6 kg[yield]/ha per mm[ET]

 Transpiration during growing season       358.1 mm[EP]
   Dry Matter Productivity                  3.49 kg[DM]/m3[EP]            =   34.9 kg[DM]/ha per mm[EP]
   Yield Productivity                       1.51 kg[grain yield]/m3[EP]   =   15.1 kg[yield]/ha per mm[EP]

 N applied during growing season             86. kg[N applied]/ha
   Dry Matter Productivity                 145.5 kg[DM]/kg[N applied]
   Yield Productivity                       63.1 kg[yield]/kg[N applied]

 N uptake during growing season              170 kg[N uptake]/ha
   Dry Matter Productivity                  73.6 kg[DM]/kg[N uptake]
   Yield Productivity                       31.9 kg[yield]/kg[N uptake]

--------------------------------------------------------------------------------------------------------------

                     Maize YIELD :     5424 kg/ha    [Dry weight] 

**************************************************************************************************************
