*GROWTH ASPECTS OUTPUT FILE

*DSSAT Cropping System Model Ver. 4.7.2.000 -release      OCT 15, 2021; 17:59:32
                                                                                
*RUN   1        :             CSM335_date_1 MZCER047 ITSA1301    1              
 MODEL          : MZCER047 - Maize                                              
 EXPERIMENT     : ITSA1301 SG CALIBRATION SETUP OF SORGHUM SOWING DATES         
 DATA PATH      :                                                               
 TREATMENT  1   :             CSM335_date_1 MZCER047                            
  
!                                                                                                                                                                                                                                      Root Dens. (cm/cm3) by soil depth (cm):
!                                                                                                                                                                                                                                      0-5    5-15   15-30   30-60   60-90  90-120
@YEAR DOY   DAS   DAP   L#SD   GSTD   LAID   LWAD   SWAD   GWAD   RWAD   VWAD   CWAD   G#AD   GWGD   HIAD   PWAD   P#AD   WSPD   WSGD   NSTD   EWSD  PST1A  PST2A   KSTD   LN%D   SH%D   HIPD   PWDD   PWTD     SLAD   CHTD   CWID   RDPD    RL1D    RL2D    RL3D    RL4D    RL5D    RL6D   CDAD   LDAD   SDAD   SNW0C   SNW1C  DTTD
 2014 161    34     0    0.0      0   0.00      0      0      0      0      0      0      0    0.0  0.000      0      0  0.000  0.000  0.000  0.000  0.000  0.000  0.000   0.00   0.00   0.00      0      0      0.0   0.00   0.00   0.03    0.00    0.00    0.00    0.00    0.00    0.00      0      0      0       0       0 15.50
 2014 162    35     1    0.0      0   0.00      0      0      0      0      0      0      0    0.0  0.000      0      0  0.000  0.000  0.000  0.000  0.000  0.000  0.000   0.00   0.00   0.00      0      0      0.0   0.00   0.00   0.05    0.00    0.00    0.00    0.00    0.00    0.00      0      0      0       0       0 14.29
 2014 163    36     2    0.0      0   0.00      0      0      0      0      0      0      0    0.0  0.000      0      0  0.000  0.000  0.000  0.000  0.000  0.000  0.000   0.00   0.00   0.00      0      0      0.0   0.00   0.00   0.07    0.00    0.00    0.00    0.00    0.00    0.00      0      0      0       0       0 15.43
 2014 164    37     3    0.0      0   0.00      0      0      0      0      0      0      0    0.0  0.000      0      0  0.000  0.000  0.000  0.000  0.000  0.000  0.000   0.00   0.00   0.00      0      0      0.0   0.00   0.00   0.10    0.00    0.00    0.00    0.00    0.00    0.00      0      0      0       0       0 14.64
 2014 165    38     4    0.0      0   0.00      0      0      0      0      0      0      0    0.0  0.000      0      0  0.000  0.000  0.000  0.000  0.000  0.000  0.000   0.00   0.00   0.00      0      0      0.0   0.00   0.00   0.12    0.00    0.00    0.00    0.00    0.00    0.00      0      0      0       0       0 14.27
 2014 166    39     5    0.0      0   0.00      0      0      0      0      0      0      0    0.0  0.000      0      0  0.000  0.000  0.000  0.000  0.000  0.000  0.000   0.00   0.00   0.00      0      0      0.0   0.00   0.00   0.14    0.00    0.00    0.00    0.00    0.00    0.00      0      0      0       0       0 15.62
 2014 167    40     6    1.0      1   0.00      8      8      0      8     16     16      0    0.0  0.000      0      0  0.000  0.000  0.012  0.000  0.000  0.000  0.000   4.40   0.00   0.00      0      0     17.1   0.00   0.00   0.16    0.16    0.08    0.00    0.00    0.00    0.00      0      0      0       0       0 16.03
 2014 168    41     7    2.0      1   0.00      8      8      0      8     16     16      0    0.0  0.000      0      0  0.000  0.000  0.014  0.000  0.000  0.000  0.000   4.40   0.00   0.00      0      0     30.5   0.00   0.00   0.17    0.17    0.08    0.00    0.00    0.00    0.00      0      0      0       0       0 15.61
 2014 169    42     8    2.0      1   0.00      8      8      0      9     16     16      0    0.0  0.000      0      0  0.000  0.000  0.010  0.000  0.000  0.000  0.000   4.40   0.00   0.00      0      0     44.7   0.00   0.00   0.19    0.17    0.08    0.00    0.00    0.00    0.00      0      0      0       0       0 15.11
 2014 170    43     9    2.0      1   0.00      8      8      0      9     16     16      0    0.0  0.000      0      0  0.000  0.000  0.006  0.000  0.000  0.000  0.000   4.40   0.00   0.00      0      0     60.0   0.00   0.00   0.20    0.17    0.08    0.00    0.00    0.00    0.00      0      0      0       0       0 14.89
 2014 171    44    10    2.0      1   0.01      8      8      0      9     16     16      0    0.0  0.000      0      0  0.000  0.000  0.002  0.000  0.000  0.000  0.000   4.40   0.00   0.00      0      0     76.1   0.00   0.00   0.22    0.17    0.08    0.00    0.00    0.00    0.00      0      0      0       0       0 14.64
 2014 172    45    11    3.0      1   0.01      8      8      0     10     16     16      0    0.0  0.000      0      0  0.000  0.000  0.000  0.000  0.000  0.000  0.000   4.40   0.00   0.00      0      0     94.7   0.01   0.00   0.23    0.18    0.09    0.00    0.00    0.00    0.00      0      0      0       0       0 15.86
 2014 173    46    12    3.0      1   0.01      8      8      0     11     16     16      0    0.0  0.000      0      0  0.000  0.000  0.000  0.000  0.000  0.000  0.000   4.40   0.00   0.00      0      0    113.8   0.01   0.00   0.25    0.19    0.10    0.01    0.00    0.00    0.00      0      0      0       0       0 15.35
 2014 174    47    13    3.0      1   0.01      8      8      0     12     16     16      0    0.0  0.000      0      0  0.000  0.000  0.000  0.000  0.000  0.000  0.000   4.40   0.00   0.00      0      0    131.9   0.01   0.00   0.26    0.19    0.10    0.01    0.00    0.00    0.00      0      0      0       0       0 13.89
 2014 175    48    14    4.0      1   0.02      8      8      0     13     16     16      0    0.0  0.000      0      0  0.000  0.000  0.000  0.000  0.000  0.000  0.000   4.40   0.00   0.00      0      0    186.6   0.01   0.00   0.28    0.20    0.11    0.02    0.00    0.00    0.00      0      0      0       0       0 13.47
 2014 176    49    15    4.0      1   0.02      8      8      0     14     16     16      0    0.0  0.000      0      0  0.000  0.000  0.000  0.000  0.000  0.000  0.000   4.40   0.00   0.00      0      0    244.0   0.02   0.00   0.29    0.21    0.12    0.03    0.00    0.00    0.00      0      0      0       0       0 12.95
 2014 177    50    16    4.0      1   0.03      8      8      0     16     16     16      0    0.0  0.000      0      0  0.000  0.000  0.000  0.000  0.000  0.000  0.000   4.40   0.00   0.00      0      0    308.3   0.02   0.00   0.30    0.22    0.13    0.04    0.00    0.00    0.00      0      0      0       0       0 13.36
 2014 178    51    17    4.0      1   0.03      9      8      0     18     17     17      0    0.0  0.000      0      0  0.000  0.000  0.000  0.000  0.000  0.000  0.000   3.97   0.00   0.00      0      0    333.9   0.02   0.00   0.32    0.24    0.15    0.05    0.00    0.00    0.00      0      0      0       0       0 13.91
 2014 179    52    18    4.0      1   0.04     12      8      0     21     20     20      0    0.0  0.000      0      0  0.000  0.000  0.000  0.000  0.000  0.000  0.000   3.68   0.00   0.00      0      0    318.3   0.03   0.00   0.33    0.25    0.16    0.06    0.00    0.00    0.00      0      0      0       0       0 13.86
 2014 180    53    19    5.0      1   0.04     14      8      0     24     22     22      0    0.0  0.000      0      0  0.000  0.000  0.000  0.000  0.000  0.000  0.000   3.69   0.00   0.00      0      0    305.8   0.03   0.00   0.34    0.27    0.18    0.08    0.00    0.00    0.00      0      0      0       0       0 13.01
 2014 181    54    20    5.0      1   0.05     17      8      0     27     25     25      0    0.0  0.000      0      0  0.000  0.000  0.000  0.000  0.000  0.000  0.000   3.64   0.00   0.00      0      0    293.9   0.04   0.00   0.37    0.29    0.20    0.10    0.00    0.00    0.00      0      0      0       0       0 13.98
 2014 182    55    21    5.0      1   0.06     20      8      0     31     29     29      0    0.0  0.000      0      0  0.000  0.000  0.000  0.000  0.000  0.000  0.000   3.64   0.00   0.00      0      0    283.6   0.04   0.00   0.40    0.31    0.22    0.12    0.01    0.00    0.00      0      0      0       0       1 13.62
 2014 183    56    22    5.0      1   0.07     24      8      0     36     32     32      0    0.0  0.000      0      0  0.000  0.000  0.000  0.000  0.000  0.000  0.000   3.62   0.00   0.00      0      0    274.2   0.05   0.00   0.43    0.34    0.25    0.15    0.01    0.00    0.00      0      0      0       0       1 13.87
 2014 184    57    23    5.0      1   0.07     28      8      0     41     36     36      0    0.0  0.000      0      0  0.000  0.000  0.000  0.000  0.000  0.000  0.000   3.59   0.00   0.00      0      0    265.2   0.06   0.00   0.46    0.37    0.27    0.17    0.02    0.00    0.00      0      0      0       0       1 14.59
 2014 185    58    24    6.0      1   0.08     32      8      0     47     40     40      0    0.0  0.000      0      0  0.000  0.000  0.000  0.000  0.000  0.000  0.000   3.63   0.00   0.00      0      0    258.0   0.06   0.00   0.48    0.40    0.30    0.20    0.03    0.00    0.00      0      0      0       0       1 13.03
 2014 186    59    25    6.0      1   0.09     37      8      0     53     45     45      0    0.0  0.000      0      0  0.000  0.000  0.000  0.000  0.000  0.000  0.000   3.59   0.00   0.00      0      0    250.8   0.07   0.00   0.51    0.42    0.32    0.22    0.04    0.00    0.00      0      0      0       0       1 13.92
 2014 187    60    26    6.0      1   0.10     42      8      0     57     50     50      0    0.0  0.000      0      0  0.000  0.000  0.000  0.000  0.000  0.000  0.000   3.56   0.00   0.00      0      0    243.9   0.08   0.00   0.54    0.44    0.34    0.24    0.05    0.00    0.00      0      0      0       0       2 14.34
 2014 188    61    27    6.0      1   0.11     47      8      0     63     55     55      0    0.0  0.000      0      0  0.000  0.000  0.000  0.000  0.000  0.000  0.000   3.58   0.00   0.00      0      0    238.0   0.09   0.00   0.56    0.46    0.36    0.26    0.07    0.00    0.00      0      0      0       0       2 13.14
 2014 189    62    28    6.0      1   0.12     53      8      0     72     61     61      0    0.0  0.000      0      0  0.000  0.000  0.000  0.000  0.000  0.000  0.000   3.56   0.00   0.00      0      0    232.3   0.09   0.00   0.59    0.49    0.39    0.29    0.09    0.00    0.00      0      0      0       0       2 13.33
 2014 190    63    29    7.0      1   0.13     59      8      0     81     68     68      0    0.0  0.000      0      0  0.000  0.000  0.000  0.000  0.000  0.000  0.000   3.52   0.00   0.00      0      0    226.6   0.10   0.00   0.62    0.52    0.41    0.32    0.12    0.00    0.00      0      0      0       0       3 14.21
 2014 191    64    30    7.0      2   0.15     62      8      0     90     71     71      0    0.0  0.000      0      0  0.000  0.000  0.000  0.000  0.000  0.000  0.000   3.72   0.00   0.00      0      0    239.7   0.11   0.00   0.65    0.55    0.44    0.35    0.15    0.00    0.00      0      0      0       0       3 14.09
 2014 192    65    31    7.0      2   0.16     70      8      0    100     79     79      0    0.0  0.000      0      0  0.000  0.000  0.003  0.000  0.000  0.000  0.000   3.49   0.00   0.00      0      0    233.6   0.13   0.00   0.68    0.58    0.47    0.39    0.18    0.01    0.00      0      0      0       0       3 13.99
 2014 193    66    32    7.0      2   0.18     80      8      0    109     88     88      0    0.0  0.000      0      0  0.000  0.000  0.000  0.000  0.000  0.000  0.000   3.41   0.00   0.00      0      0    227.5   0.14   0.00   0.71    0.61    0.50    0.41    0.20    0.01    0.00      0      0      0       0       4 14.88
 2014 194    67    33    7.0      2   0.20     89      8      0    122     97     97      0    0.0  0.000      0      0  0.000  0.000  0.000  0.000  0.000  0.000  0.000   3.80   0.00   0.00      0      0    222.4   0.15   0.00   0.73    0.65    0.53    0.45    0.23    0.02    0.00      0      0      0       0       4 13.14
 2014 195    68    34    8.0      2   0.21     98      8      0    138    107    107      0    0.0  0.000      0      0  0.000  0.000  0.000  0.000  0.000  0.000  0.000   3.74   0.00   0.00      0      0    217.7   0.16   0.00   0.76    0.70    0.58    0.50    0.27    0.04    0.00      0      0      0       0       5 13.03
 2014 196    69    35    8.0      3   0.23    109      8      0    147    117    117      0    0.0  0.000      0      0  0.000  0.000  0.000  0.000  0.000  0.000  0.000   3.62   0.00   0.00      0      0    211.4   0.18   0.00   0.78    0.72    0.60    0.53    0.30    0.05    0.00      0      0      0       0       6 13.32
 2014 197    70    36    8.0      3   0.25    121      8      0    165    130    130      0    0.0  0.000      0      0  0.000  0.000  0.000  0.000  0.000  0.000  0.000   3.56   0.00   0.00      0      0    207.5   0.19   0.00   0.81    0.77    0.65    0.58    0.34    0.07    0.00      0      0      0       0       6 15.07
 2014 198    71    37    8.0      3   0.27    135      8      0    179    143    143      0    0.0  0.000      0      0  0.000  0.000  0.000  0.000  0.000  0.000  0.000   3.53   0.00   0.00      0      0    203.8   0.21   0.00   0.84    0.81    0.68    0.62    0.37    0.09    0.00      0      0      0       0       7 14.73
 2014 199    72    38    8.0      3   0.30    148      8      0    194    156    156      0    0.0  0.000      0      0  0.000  0.000  0.000  0.000  0.000  0.000  0.000   3.50   0.00   0.00      0      0    200.5   0.23   0.00   0.87    0.85    0.72    0.66    0.41    0.12    0.00      0      0      0       0       8 13.67
 2014 200    73    39    9.0      3   0.32    161      9      0    209    170    170      0    0.0  0.000      0      0  0.000  0.000  0.000  0.015  0.000  0.000  0.000   3.48   0.00   0.00      0      0    197.5   0.24   0.00   0.90    0.88    0.75    0.69    0.44    0.14    0.00      0      0      0       0       9 13.02
 2014 201    74    40    9.0      3   0.34    174      9      0    231    183    183      0    0.0  0.000      0      0  0.000  0.000  0.000  0.010  0.000  0.000  0.000   3.45   0.00   0.00      0      0    194.8   0.26   0.00   0.92    0.92    0.79    0.75    0.49    0.19    0.00      0      0      0       0      10 12.32
 2014 202    75    41    9.0      3   0.36    190     10      0    244    199    199      0    0.0  0.000      0      0  0.000  0.000  0.000  0.016  0.000  0.000  0.000   3.42   0.00   0.00      0      0    191.8   0.28   0.00   0.95    0.95    0.82    0.78    0.52    0.21    0.00      0      0      0       0      11 13.88
 2014 203    76    42    9.0      3   0.39    205     10      0    257    215    215      0    0.0  0.000      0      0  0.000  0.000  0.000  0.000  0.000  0.000  0.000   3.40   0.00   0.00      0      0    189.2   0.30   0.00   0.97    0.98    0.84    0.81    0.55    0.24    0.01      0      0      0       0      13 12.40
 2014 204    77    43    9.0      3   0.41    221     11      0    276    232    232      0    0.0  0.000      0      0  0.000  0.000  0.000  0.000  0.000  0.000  0.000   3.37   0.00   0.00      0      0    186.6   0.32   0.00   1.00    1.02    0.88    0.85    0.59    0.27    0.01      0      0      0       0      14 12.95
 2014 205    78    44    9.0      3   0.44    238     12      0    293    250    250      0    0.0  0.000      0      0  0.000  0.000  0.000  0.000  0.000  0.000  0.000   3.34   0.00   0.00      0      0    184.1   0.34   0.00   1.03    1.05    0.91    0.89    0.62    0.30    0.02      0      0      0       0      15 12.65
 2014 206    79    45   10.0      3   0.46    256     14      0    315    270    270      0    0.0  0.000      0      0  0.000  0.000  0.000  0.000  0.000  0.000  0.000   3.32   0.00   0.00      0      0    181.6   0.36   0.00   1.05    1.10    0.96    0.94    0.66    0.34    0.04      0      0      0       0      17 12.72
 2014 207    80    46   10.0      3   0.49    274     15      0    327    289    289      0    0.0  0.000      0      0  0.000  0.000  0.000  0.000  0.000  0.000  0.000   3.30   0.00   0.00      0      0    179.4   0.38   0.00   1.08    1.12    0.98    0.96    0.69    0.36    0.05      0      0      0       0      18 12.06
 2014 208    81    47   10.0      3   0.52    293     18      0    346    311    311      0    0.0  0.000      0      0  0.000  0.000  0.000  0.000  0.000  0.000  0.000   3.27   0.00   0.00      0      0    177.1   0.40   0.00   1.10    1.18    1.02    1.00    0.72    0.39    0.06      0      0      0       0      20 12.47
 2014 209    82    48   10.0      3   0.55    315     20      0    375    335    335      0    0.0  0.000      0      0  0.000  0.000  0.000  0.000  0.000  0.000  0.000   3.25   0.00   0.00      0      0    174.8   0.42   0.00   1.13    1.26    1.07    1.07    0.78    0.44    0.09      0      0      0       0      22 13.31
 2014 210    83    49   10.0      3   0.58    337     23      0    390    360    360      0    0.0  0.000      0      0  0.000  0.000  0.000  0.000  0.000  0.000  0.000   3.22   0.00   0.00      0      0    172.6   0.45   0.00   1.15    1.30    1.10    1.10    0.80    0.46    0.10      0      0      0       0      24 12.90
 2014 211    84    50   11.0      3   0.61    358     27      0    409    384    384      0    0.0  0.000      0      0  0.000  0.000  0.000  0.000  0.000  0.000  0.000   3.20   0.00   0.00      0      0    170.6   0.47   0.00   1.18    1.35    1.13    1.14    0.84    0.49    0.12      0      0      0       0      25 11.62
 2014 212    85    51   11.0      3   0.64    378     31      0    425    409    409      0    0.0  0.000      0      0  0.000  0.000  0.000  0.000  0.000  0.000  0.000   3.18   0.00   0.00      0      0    168.9   0.49   0.00   1.20    1.39    1.16    1.17    0.86    0.51    0.14      0      0      0       0      28 11.10
 2014 213    86    52   11.0      3   0.67    403     36      0    438    439    439      0    0.0  0.000      0      0  0.000  0.000  0.000  0.000  0.000  0.000  0.000   3.15   0.00   0.00      0      0    166.8   0.52   0.00   1.20    1.42    1.19    1.19    0.89    0.54    0.16      0      0      0       0      30 12.95
 2014 214    87    53   11.0      3   0.71    427     41      0    466    468    468      0    0.0  0.000      0      0  0.000  0.000  0.000  0.000  0.000  0.000  0.000   3.13   0.00   0.00      0      0    165.0   0.54   0.00   1.20    1.49    1.24    1.25    0.93    0.58    0.19      0      0      0       0      32 11.85
 2014 215    88    54   11.0      3   0.74    452     47      0    506    500    500      0    0.0  0.000      0      0  0.000  0.000  0.000  0.000  0.000  0.000  0.000   3.11   0.00   0.00      0      0    163.2   0.57   0.00   1.20    1.60    1.32    1.33    1.00    0.64    0.24      0      0      0       0      34 11.85
 2014 216    89    55   11.0      3   0.77    477     54      0    537    531    531      0    0.0  0.000      0      0  0.000  0.000  0.000  0.000  0.000  0.000  0.000   3.09   0.00   0.00      0      0    161.6   0.59   0.00   1.20    1.68    1.38    1.39    1.05    0.69    0.27      0      0      0       0      37 11.15
 2014 217    90    56   12.0      3   0.81    505     62      0    564    567    567      0    0.0  0.000      0      0  0.000  0.000  0.000  0.000  0.000  0.000  0.000   3.07   0.00   0.00      0      0    159.8   0.62   0.00   1.20    1.75    1.43    1.44    1.10    0.73    0.31      0      0      0       0      39 10.65
 2014 218    91    57   12.0      3   0.85    539     73      0    592    611    611      0    0.0  0.000      0      0  0.000  0.000  0.000  0.000  0.000  0.000  0.000   3.05   0.00   0.00      0      0    157.9   0.65   0.00   1.20    1.82    1.49    1.50    1.15    0.77    0.34      0      0      0       0      42 12.50
 2014 219    92    58   12.0      3   0.89    572     84      0    637    656    656      0    0.0  0.000      0      0  0.000  0.000  0.000  0.000  0.000  0.000  0.000   3.02   0.00   0.00      0      0    156.1   0.69   0.00   1.20    1.94    1.58    1.59    1.22    0.84    0.39      0      0      0       0      45 12.15
 2014 220    93    59   12.0      3   0.93    604     96      0    661    700    700      0    0.0  0.000      0      0  0.000  0.000  0.000  0.000  0.000  0.000  0.000   3.00   0.00   0.00      0      0    154.4   0.72   0.00   1.20    1.99    1.63    1.64    1.26    0.87    0.42      0      0      0       0      48 11.70
 2014 221    94    60   12.0      3   0.98    638    110      0    705    748    748      0    0.0  0.000      0      0  0.000  0.000  0.000  0.000  0.000  0.000  0.000   2.98   0.00   0.00      0      0    152.8   0.75   0.00   1.20    2.11    1.72    1.73    1.34    0.94    0.47      0      0      0       0      52 12.30
 2014 222    95    61   12.0      3   1.01    668    122      0    745    790    790      0    0.0  0.000      0      0  0.000  0.000  0.000  0.000  0.000  0.000  0.000   2.96   0.00   0.00      0      0    151.5   0.78   0.00   1.20    2.21    1.80    1.81    1.40    1.00    0.52      0      0      0       0      55 10.50
 2014 223    96    62   13.0      3   1.05    698    136      0    797    834    834      0    0.0  0.000      0      0  0.000  0.000  0.000  0.000  0.000  0.000  0.000   2.94   0.00   0.00      0      0    150.2   0.81   0.00   1.20    2.33    1.91    1.91    1.49    1.08    0.58      0      0      0       0      59 10.65
 2014 224    97    63   13.0      3   1.09    734    153      0    796    887    887      0    0.0  0.000      0      0  0.000  0.000  0.000  0.000  0.000  0.000  0.000   2.92   0.00   0.00      0      0    148.7   0.84   0.00   1.20    2.33    1.90    1.91    1.49    1.08    0.58      0      0      0       0      63 12.55
 2014 225    98    64   13.0      3   1.13    770    172      0    854    942    942      0    0.0  0.000      0      0  0.000  0.000  0.000  0.000  0.000  0.000  0.000   2.90   0.00   0.00      0      0    147.4   0.87   0.00   1.20    2.47    2.01    2.03    1.59    1.17    0.65      0      0      0       0      67 12.40
 2014 226    99    65   13.0      3   1.18    806    192      0    930    999    999      0    0.0  0.000      0      0  0.000  0.000  0.000  0.000  0.000  0.000  0.000   2.88   0.00   0.00      0      0    146.1   0.91   0.00   1.20    2.65    2.15    2.18    1.72    1.28    0.75      0      0      0       0      71 12.50
 2014 227   100    66   13.0      3   1.22    841    213      0    988   1053   1053      0    0.0  0.000      0      0  0.000  0.000  0.000  0.007  0.000  0.000  0.000   2.86   0.00   0.00      0      0    144.9   0.94   0.00   1.20    2.79    2.25    2.30    1.82    1.38    0.82      0      0      0       0      76 11.65
 2014 228   101    67   13.0      3   1.26    873    233      0   1049   1106   1106      0    0.0  0.000      0      0  0.000  0.000  0.000  0.008  0.000  0.000  0.000   2.84   0.00   0.00      0      0    143.8   0.97   0.00   1.20    2.93    2.36    2.41    1.92    1.47    0.90      0      0      0       0      81 10.95
 2014 229   102    68   14.0      3   1.33    936    269      0   1049   1205   1205      0    0.0  0.000      0      0  0.000  0.000  0.000  0.000  0.000  0.000  0.000   2.82   0.00   0.00      0      0    141.9   1.02   0.00   1.20    2.93    2.35    2.41    1.92    1.47    0.90      0      0      0       0      86 11.70
 2014 230   103    69   14.0      3   1.41   1005    333      0   1076   1338   1338      0    0.0  0.000      0      0  0.000  0.000  0.000  0.000  0.000  0.000  0.000   2.80   0.00   0.00      0      0    139.9   1.08   0.00   1.20    2.99    2.40    2.46    1.96    1.51    0.94      0      0      0       0      91 11.75
 2014 231   104    70   14.0      3   1.46   1057    393      0   1091   1449   1449      0    0.0  0.000      0      0  0.000  0.000  0.000  0.000  0.000  0.000  0.000   2.78   0.00   0.00      0      0    138.6   1.13   0.00   1.20    3.02    2.42    2.49    1.99    1.54    0.96      0      0      0       0      97 10.95
 2014 232   105    71   14.0      3   1.52   1105    458      0   1097   1563   1563      0    0.0  0.000      0      0  0.000  0.000  0.000  0.007  0.000  0.000  0.000   2.76   0.00   0.00      0      0    137.4   1.17   0.00   1.20    3.03    2.42    2.50    2.00    1.55    0.97      0      0      0       0     102 12.05
 2014 233   106    72   14.0      3   1.56   1146    520      0   1134   1666   1666      0    0.0  0.000      0      0  0.000  0.000  0.000  0.008  0.000  0.000  0.000   2.74   0.00   0.00      0      0    136.4   1.20   0.00   1.20    3.11    2.48    2.57    2.06    1.61    1.02      0      0      0       0     108 11.45
 2014 234   107    73   14.0      3   1.60   1181    577      0   1158   1758   1758      0    0.0  0.000      0      0  0.000  0.000  0.000  0.005  0.000  0.000  0.000   2.73   0.00   0.00      0      0    135.6   1.23   0.00   1.20    3.17    2.51    2.61    2.10    1.65    1.05      0      0      0       0     113 10.60
 2014 235   108    74   15.0      3   1.64   1214    637      0   1189   1851   1851      0    0.0  0.000      0      0  0.000  0.000  0.000  0.004  0.000  0.000  0.000   2.71   0.00   0.00      0      0    134.9   1.26   0.00   1.20    3.24    2.56    2.67    2.15    1.70    1.10      0      0      0       0     119 11.00
 2014 236   109    75   15.0      3   1.68   1252    709      0   1247   1961   1961      0    0.0  0.000      0      0  0.000  0.000  0.000  0.000  0.000  0.000  0.000   2.69   0.00   0.00      0      0    134.1   1.29   0.00   1.20    3.37    2.65    2.78    2.25    1.79    1.18      0      0      0       0     125 13.20
 2014 237   110    76   15.0      3   1.71   1283    771      0   1320   2054   2054      0    0.0  0.000      0      0  0.000  0.000  0.000  0.000  0.000  0.000  0.000   2.67   0.00   0.00      0      0    133.4   1.32   0.00   1.20    3.53    2.75    2.91    2.37    1.91    1.28      0      0      0       0     131 11.50
 2014 238   111    77   15.0      3   1.74   1314    838      0   1322   2151   2151      0    0.0  0.000      0      0  0.000  0.000  0.000  0.023  0.000  0.000  0.000   2.65   0.00   0.00      0      0    132.8   1.34   0.00   1.20    3.53    2.75    2.91    2.37    1.92    1.29      0      0      0       0     138 12.45
 2014 239   112    78   15.0      3   1.77   1341    900      0   1400   2241   2241      0    0.0  0.000      0      0  0.000  0.000  0.000  0.000  0.000  0.000  0.000   2.63   0.00   0.00      0      0    132.3   1.36   0.00   1.20    3.70    2.86    3.05    2.50    2.05    1.40      0      0      0       0     144 11.35
 2014 240   113    79   15.0      3   1.80   1370    966      0   1482   2336   2336      0    0.0  0.000      0      0  0.000  0.000  0.000  0.000  0.000  0.000  0.000   2.61   0.00   0.00      0      0    131.7   1.39   0.00   1.20    3.88    2.98    3.20    2.63    2.18    1.52      0      0      0       0     151 12.20
 2014 241   114    80   16.0      3   1.83   1397   1033      0   1523   2430   2430      0    0.0  0.000      0      0  0.000  0.000  0.000  0.000  0.000  0.000  0.000   2.59   0.00   0.00      0      0    131.2   1.41   0.00   1.20    3.97    3.04    3.28    2.70    2.25    1.59      0      0      0       0     159 12.30
 2014 242   115    81   16.0      3   1.86   1426   1104      0   1550   2530   2533      0    0.0  0.000      2      0  0.000  0.000  0.000  0.000  0.000  0.000  0.000   2.57   0.00   0.00      0      2    130.7   1.43   0.00   1.20    4.00    3.07    3.32    2.74    2.30    1.63      0      0      0       0     166 13.45
 2014 243   116    82   16.0      3   1.89   1453   1171      0   1584   2624   2629      0    0.0  0.000      6      0  0.000  0.000  0.000  0.021  0.000  0.000  0.000   2.55   0.00   0.00      0      6    130.2   1.46   0.00   1.20    4.00    3.12    3.39    2.79    2.36    1.68      0      0      0       0     174 13.10
 2014 244   117    83   16.0      3   1.91   1474   1223      0   1628   2696   2706      0    0.0  0.000      9      0  0.000  0.000  0.000  0.023  0.000  0.000  0.000   2.54   0.00   0.00      0      9    129.8   1.47   0.00   1.20    4.00    3.18    3.46    2.86    2.43    1.75      0      0      0       0     182 10.50
 2014 245   118    84   16.0      3   1.94   1496   1278      0   1677   2774   2789      0    0.0  0.000     15      0  0.000  0.000  0.000  0.004  0.000  0.000  0.000   2.52   0.00   0.01      0     15    129.5   1.49   0.00   1.20    4.00    3.26    3.55    2.93    2.51    1.83      0      0      0       0     190 11.25
 2014 246   119    85   16.0      3   1.96   1518   1334      0   1716   2852   2872      0    0.0  0.000     21      0  0.000  0.000  0.000  0.006  0.000  0.000  0.000   2.51   0.00   0.01      0     21    129.1   1.51   0.00   1.20    4.00    3.32    3.63    2.99    2.58    1.89      0      0      0       0     199 11.40
 2014 247   120    86   17.0      3   1.98   1541   1393      0   1767   2934   2964      0    0.0  0.000     30      0  0.000  0.000  0.000  0.000  0.000  0.000  0.000   2.49   0.00   0.01      0     30    128.7   1.53   0.00   1.20    4.00    3.40    3.72    3.06    2.66    1.97      0      0      0       0     207 12.50
 2014 248   121    87   17.0      3   2.01   1563   1448      0   1805   3010   3050      0    0.0  0.000     39      0  0.000  0.000  0.000  0.000  0.000  0.000  0.000   2.47   0.00   0.01      0     39    128.4   1.54   0.00   1.20    4.00    3.46    3.80    3.11    2.72    2.03      0      0      0       0     216 11.80
 2014 249   122    88   17.0      3   2.03   1583   1499      0   1847   3082   3134      0    0.0  0.000     52      0  0.000  0.000  0.000  0.000  0.000  0.000  0.000   2.46   0.00   0.02      0     52    128.0   1.56   0.00   1.20    4.00    3.53    3.88    3.17    2.79    2.10      0      0      0       0     225 11.65
 2014 250   123    89   17.0      3   2.05   1604   1553      0   1863   3157   3220      0    0.0  0.000     63      0  0.000  0.000  0.000  0.003  0.000  0.000  0.000   2.44   0.00   0.02      0     63    127.7   1.58   0.00   1.20    4.00    3.56    3.91    3.19    2.82    2.12      0      0      0       0     234 12.05
 2014 251   124    90   17.0      3   2.07   1624   1595      0   1903   3219   3300      0    0.0  0.000     81      0  0.000  0.000  0.000  0.000  0.000  0.000  0.000   2.43   0.00   0.02      0     81    127.4   1.59   0.00   1.20    4.00    3.63    3.99    3.25    2.88    2.18      0      0      0       0     244 11.05
 2014 252   125    91   17.0      3   2.09   1642   1631      0   1944   3272   3374      0    0.0  0.000    102      0  0.000  0.000  0.000  0.000  0.000  0.000  0.000   2.42   0.00   0.03      0    102    127.1   1.60   0.00   1.20    4.00    3.70    4.00    3.31    2.95    2.25      0      0      0       0     253 10.35
 2014 253   126    92   17.0      3   2.11   1663   1671      0   1978   3335   3462      0    0.0  0.000    128      0  0.000  0.000  0.000  0.000  0.000  0.000  0.000   2.40   0.00   0.04      0    128    126.8   1.60   0.00   1.20    4.00    3.76    4.00    3.35    3.00    2.30      0      0      0       0     263 12.20
 2014 254   127    93   17.0      3   2.13   1684   1685      0   2070   3369   3548      0    0.0  0.000    179      0  0.000  0.000  0.000  0.000  0.000  0.000  0.000   2.40   0.00   0.05      0    179    126.5   1.60   0.00   1.20    4.00    3.93    4.00    3.48    3.15    2.44      0      0      0       0     273 11.85
 2014 255   128    94   17.0      3   2.15   1706   1695      0   2146   3401   3635      0    0.0  0.000    235      0  0.000  0.000  0.000  0.000  0.000  0.000  0.000   2.39   0.00   0.06      0    235    126.2   1.60   0.00   1.20    4.00    4.00    4.00    3.59    3.27    2.56      0      0      0       0     283 12.15
 2014 256   129    95   17.0      3   2.17   1726   1702      0   2203   3428   3718      0    0.0  0.000    290      0  0.000  0.000  0.000  0.019  0.000  0.000  0.000   2.37   0.00   0.08      0    290    125.9   1.60   0.00   1.20    4.00    4.00    4.00    3.67    3.37    2.65      0      0      0       0     294 11.65
 2014 257   130    96   17.0      3   2.19   1748   1736      0   2285   3484   3808      0    0.0  0.000    324      0  0.000  0.000  0.000  0.003  0.000  0.000  0.000   2.34   0.00   0.09      0    324    125.6   1.60   0.00   1.20    4.00    4.00    4.00    3.78    3.50    2.78      0      0      0       0     305 12.45
 2014 258   131    97   17.0      3   2.22   1771   1771      0   2379   3542   3901      0    0.0  0.000    359      0  0.000  0.000  0.000  0.002  0.000  0.000  0.000   2.32   0.00   0.09      0    359    125.2   1.60   0.00   1.20    4.00    4.00    4.00    3.91    3.65    2.93      0      0      0       0     316 13.00
 2014 259   132    98   17.0      3   2.24   1794   1806      0   2415   3600   3993      0    0.0  0.000    394      0  0.000  0.000  0.000  0.005  0.000  0.000  0.000   2.30   0.00   0.10      0    394    124.9   1.60   0.00   1.20    4.00    4.00    4.00    3.95    3.71    2.99      0      0      0       0     328 12.75
 2014 260   133    99   17.0      3   2.26   1815   1838      0   2497   3653   4078      0    0.0  0.000    426      0  0.000  0.000  0.000  0.003  0.000  0.000  0.000   2.28   0.00   0.10      0    426    124.6   1.60   0.00   1.20    4.00    4.00    4.00    4.00    3.84    3.12      0      0      0       0     340 11.80
 2014 261   134   100   17.0      3   2.28   1838   1873      0   2585   3710   4170      0    0.0  0.000    460      0  0.000  0.000  0.000  0.003  0.000  0.000  0.000   2.27   0.00   0.11      0    460    124.3   1.60   0.00   1.20    4.00    4.00    4.00    4.00    3.98    3.27      0      0      0       0     353 12.75
 2014 262   135   101   17.0      3   2.31   1863   1911      0   2656   3775   4274      0    0.0  0.000    499      0  0.000  0.000  0.000  0.003  0.000  0.000  0.000   2.25   0.00   0.12      0    499    124.0   1.60   0.00   1.20    4.00    4.00    4.00    4.00    4.00    3.39      0      0      0       0     366 14.30
 2014 263   136   102   17.0      4   2.20   1843   2008      0   2655   3851   4528      0    0.0  0.000    676      0  0.000  0.000  0.000  0.001  0.000  0.000  0.000   2.32   0.00   0.15      0    676    119.2   1.60   0.00   1.20    4.00    4.00    4.00    4.00    4.00    3.39      0      0      0       0     379 13.60
 2014 264   137   103   17.0      4   2.19   1821   2094      0   2654   3916   4777      0    0.0  0.000    861      0  0.000  0.000  0.000  0.002  0.000  0.000  0.000   2.28   0.00   0.18      0    861    120.3   1.60   0.00   1.20    4.00    4.00    4.00    3.99    3.99    3.39      0      0      0       0     379 11.65
 2014 265   138   104   17.0      4   2.18   1799   2167      0   2651   3966   5012      0    0.0  0.000   1046      0  0.000  0.000  0.000  0.003  0.000  0.000  0.000   2.26   0.00   0.21      0   1046    121.4   1.60   0.00   1.20    4.00    4.00    4.00    3.98    3.99    3.39      0      0      0       0     379 12.30
 2014 266   139   105   17.0      4   2.18   1775   2221      0   2648   3996   5204      0    0.0  0.000   1208      0  0.000  0.000  0.000  0.004  0.000  0.000  0.000   2.24   0.00   0.23      0   1208    122.6   1.60   0.00   1.20    4.00    4.00    4.00    3.98    3.98    3.38      0      0      0       0     379 13.40
 2014 267   140   106   17.0      4   2.17   1750   2281      0   2646   4031   5443      0    0.0  0.000   1412      0  0.000  0.000  0.000  0.003  0.000  0.000  0.000   2.22   0.00   0.26      0   1412    124.0   1.60   0.00   1.20    4.00    4.00    4.00    3.97    3.98    3.38      0      0      0       0     379 11.45
 2014 268   141   107   17.0      4   2.16   1723   2336      0   2644   4060   5688      0    0.0  0.000   1628      0  0.000  0.000  0.000  0.002  0.000  0.000  0.000   2.20   0.00   0.29      0   1628    125.4   1.60   0.00   1.20    4.00    4.00    4.00    3.97    3.98    3.39      0      0      0       0     379 13.65
 2014 269   142   108   17.0      4   2.15   1696   2379      0   2641   4075   5891      0    0.0  0.000   1816      0  0.000  0.000  0.000  0.003  0.000  0.000  0.000   2.19   0.00   0.31      0   1816    127.0   1.60   0.00   1.20    4.00    4.00    4.00    3.96    3.97    3.38      0      0      0       0     379 13.85
 2014 270   143   109   17.0      4   2.15   1667   2412      0   2636   4079   6055      0    0.0  0.000   1976      0  0.000  0.000  0.000  0.000  0.000  0.000  0.000   2.19   0.00   0.33      0   1976    128.8   1.60   0.00   1.20    4.00    4.00    4.00    3.95    3.97    3.38      0      0      0       0     379 11.90
 2014 271   144   110   17.0      4   2.14   1636   2444      0   2632   4081   6225      0    0.0  0.000   2144      0  0.000  0.000  0.000  0.000  0.000  0.000  0.000   2.19   0.00   0.34      0   2144    130.7   1.60   0.00   1.20    4.00    4.00    4.00    3.94    3.96    3.38      0      0      0       0     379 13.80
 2014 272   145   111   17.0      4   2.13   1605   2485      0   2630   4090   6462      0    0.0  0.000   2373      0  0.000  0.000  0.000  0.000  0.000  0.000  0.000   2.19   0.00   0.37      0   2373    132.8   1.60   0.00   1.20    4.00    4.00    4.00    3.93    3.95    3.38      0      0      0       0     379 12.80
 2014 273   146   112   17.0      4   2.12   1572   2521      0   2628   4093   6680      0    0.0  0.000   2586      0  0.000  0.000  0.000  0.002  0.000  0.000  0.000   2.18   0.00   0.39      0   2586    135.0   1.60   0.00   1.20    4.00    4.00    4.00    3.93    3.95    3.37      0      0      0       0     379 12.60
 2014 274   147   113   17.0      4   2.12   1538   2559      0   2627   4097   6918      0    0.0  0.000   2821      0  0.000  0.000  0.000  0.002  0.000  0.000  0.000   2.18   0.00   0.41      0   2821    137.5   1.60   0.00   1.20    4.00    4.00    4.00    3.92    3.95    3.37      0      0      0       0     379 13.90
 2014 275   148   114   17.0      4   2.11   1503   2587      0   2623   4090   7089      0    0.0  0.000   2999      0  0.000  0.000  0.000  0.001  0.000  0.000  0.000   2.19   0.00   0.42      0   2999    140.2   1.60   0.00   1.20    4.00    4.00    4.00    3.91    3.94    3.37      0      0      0       0     379 13.40
 2014 276   149   115   17.0      5   2.05   1503   2587    175   2632   4090   7264   1346   13.0  0.024   3174      4  0.000  0.000  0.000  0.003  0.000  0.000  0.000   2.11   5.51   0.44      0   3174    136.2   1.60   0.00   1.20    4.00    4.00    4.00    3.92    3.95    3.38      0      0      0       0     379 12.50
 2014 277   150   116   17.0      5   2.04   1503   2587    350   2642   4090   7439   1346   26.0  0.047   3349      4  0.000  0.000  0.000  0.002  0.000  0.000  0.000   2.04  10.45   0.45      0   3349    135.7   1.60   0.00   1.20    4.00    4.00    4.00    3.94    3.97    3.40      0      0      0       0     379 11.65
 2014 278   151   117   17.0      5   2.03   1503   2574    525   2629   4077   7601   1346   39.0  0.069   3524      4  0.000  0.000  0.000  0.005  0.000  0.000  0.000   1.97  14.90   0.46      0   3524    135.0   1.60   0.00   1.20    4.00    4.00    4.00    3.94    3.97    3.40      0      0      0       0     379 12.65
 2014 279   152   118   17.0      5   2.02   1503   2587    700   2624   4090   7789   1346   52.0  0.090   3699      4  0.000  0.000  0.000  0.004  0.000  0.000  0.000   1.90  18.92   0.47      0   3699    134.2   1.60   0.00   1.20    3.99    4.00    4.00    3.93    3.96    3.39      0      0      0       0     379 12.45
 2014 280   153   119   17.0      5   2.01   1503   2587    875   2638   4090   7964   1346   65.0  0.110   3874      4  0.000  0.000  0.000  0.002  0.000  0.000  0.000   1.82  22.58   0.49      0   3874    133.4   1.60   0.00   1.20    4.00    4.00    4.00    3.95    3.98    3.42      0      0      0       0     379 11.25
 2014 281   154   120   17.0      5   1.99   1503   2587   1050   2651   4090   8139   1346   78.0  0.129   4049      4  0.000  0.000  0.000  0.002  0.000  0.000  0.000   1.75  25.93   0.50      0   4049    132.4   1.60   0.00   1.20    4.00    4.00    4.00    3.96    4.00    3.44      0      0      0       0     379 12.90
 2014 282   155   121   17.0      5   1.97   1503   2587   1225   2660   4090   8314   1346   91.0  0.147   4224      4  0.000  0.000  0.000  0.002  0.000  0.000  0.000   1.68  29.00   0.51      0   4224    131.3   1.60   0.00   1.20    4.00    4.00    4.00    3.98    4.00    3.46      0      0      0       0     379 12.70
 2014 283   156   122   17.0      5   1.96   1503   2587   1400   2666   4090   8488   1346  104.0  0.165   4399      4  0.000  0.000  0.000  0.013  0.000  0.000  0.000   1.60  31.82   0.52      0   4399    130.1   1.60   0.00   1.20    4.00    4.00    4.00    3.98    4.00    3.47      0      0      0       0     379 12.85
 2014 284   157   123   17.0      5   1.94   1503   2587   1575   2681   4090   8663   1346  117.0  0.182   4574      4  0.000  0.000  0.000  0.000  0.000  0.000  0.000   1.54  34.43   0.53      0   4574    128.9   1.60   0.00   1.20    4.00    4.00    4.00    4.00    4.00    3.49      0      0      0       0     392 12.00
 2014 285   158   124   17.0      5   1.91   1503   2587   1750   2690   4090   8838   1346  130.0  0.198   4749      4  0.000  0.000  0.000  0.000  0.000  0.000  0.000   1.51  36.85   0.54      0   4749    127.4   1.60   0.00   1.20    4.00    4.00    4.00    4.00    4.00    3.51      0      0      0       0     406 13.20
 2014 286   159   125   17.0      5   1.89   1503   2587   1925   2695   4090   9013   1346  143.0  0.214   4924      4  0.000  0.000  0.000  0.000  0.000  0.000  0.000   1.48  39.09   0.55      0   4924    125.9   1.60   0.00   1.20    4.00    4.00    4.00    4.00    4.00    3.52      0      0      0       0     419 12.10
 2014 287   160   126   17.0      5   1.87   1503   2587   2100   2695   4090   9188   1346  156.0  0.229   5099      4  0.000  0.000  0.000  0.000  0.000  0.000  0.000   1.45  41.18   0.55      0   5099    124.2   1.60   0.00   1.20    4.00    4.00    4.00    4.00    4.00    3.52      0      0      0       0     433 12.15
 2014 288   161   127   17.0      5   1.84   1503   2587   2275   2706   4090   9363   1346  169.0  0.243   5274      4  0.000  0.000  0.000  0.000  0.000  0.000  0.000   1.43  43.13   0.56      0   5274    122.3   1.60   0.00   1.20    4.00    4.00    4.00    4.00    4.00    3.54      0      0      0       0     446 13.05
 2014 289   162   128   17.0      5   1.81   1503   2587   2450   2719   4090   9538   1346  182.0  0.257   5449      4  0.000  0.000  0.000  0.000  0.000  0.000  0.000   1.40  44.96   0.57      0   5449    120.1   1.60   0.00   1.20    4.00    4.00    4.00    4.00    4.00    3.56      0      0      0       0     460 13.70
 2014 290   163   129   17.0      5   1.77   1503   2587   2625   2734   4090   9713   1346  195.0  0.270   5624      4  0.000  0.000  0.000  0.000  0.000  0.000  0.000   1.37  46.67   0.58      0   5624    117.9   1.60   0.00   1.20    4.00    4.00    4.00    4.00    4.00    3.59      0      0      0       0     473 13.00
 2014 291   164   130   17.0      5   1.74   1503   2587   2800   2746   4090   9888   1346  208.0  0.283   5799      4  0.000  0.000  0.000  0.000  0.000  0.000  0.000   1.35  48.28   0.59      0   5799    116.0   1.60   0.00   1.20    4.00    4.00    4.00    4.00    4.00    3.60      0      0      0       0     487 10.45
 2014 292   165   131   17.0      5   1.71   1503   2587   2975   2757   4090  10063   1346  221.0  0.296   5974      4  0.000  0.000  0.000  0.000  0.000  0.000  0.000   1.32  49.79   0.59      0   5974    113.6   1.60   0.00   1.20    3.98    4.00    4.00    4.00    4.00    3.62      0      0      0       0     501 12.35
 2014 293   166   132   17.0      5   1.67   1503   2587   3149   2761   4090  10238   1346  234.0  0.308   6149      4  0.000  0.000  0.000  0.000  0.000  0.000  0.000   1.29  51.22   0.60      0   6149    110.8   1.60   0.00   1.20    3.99    4.00    4.00    4.00    4.00    3.63      0      0      0       0     514 13.00
 2014 294   167   133   17.0      5   1.62   1503   2587   3324   2769   4090  10413   1346  247.0  0.319   6323      4  0.000  0.000  0.000  0.000  0.000  0.000  0.000   1.27  52.57   0.61      0   6323    107.7   1.60   0.00   1.20    4.00    4.00    4.00    4.00    4.00    3.64      0      0      0       0     528 13.95
 2014 295   168   134   17.0      5   1.57   1503   2587   3499   2780   4090  10588   1346  260.0  0.331   6498      4  0.000  0.000  0.000  0.000  0.000  0.000  0.000   1.25  53.85   0.61      0   6498    104.8   1.60   0.00   1.20    4.00    4.00    4.00    4.00    4.00    3.66      0      0      0       0     542 12.25
 2014 296   169   135   17.0      5   1.53   1503   2587   3674   2786   4090  10763   1346  273.0  0.341   6673      4  0.000  0.000  0.000  0.000  0.000  0.000  0.000   1.22  55.06   0.62      0   6673    101.9   1.60   0.00   1.20    4.00    4.00    4.00    4.00    4.00    3.67      0      0      0       0     556 11.60
 2014 297   170   136   17.0      5   1.49   1503   2587   3849   2795   4090  10938   1346  286.0  0.352   6848      4  0.000  0.000  0.000  0.000  0.000  0.000  0.000   1.20  56.21   0.63      0   6848     98.9   1.60   0.00   1.20    4.00    4.00    4.00    4.00    4.00    3.68      0      0      0       0     570 11.05
 2014 298   171   137   17.0      5   1.44   1503   2587   4024   2802   4090  11113   1346  299.0  0.362   7023      4  0.000  0.000  0.000  0.000  0.000  0.000  0.000   1.18  57.30   0.63      0   7023     95.6   1.60   0.00   1.20    4.00    4.00    4.00    4.00    4.00    3.69      0      0      0       0     584 11.80
 2014 299   172   138   17.0      5   1.39   1503   2587   4199   2799   4090  11288   1346  312.0  0.372   7198      4  0.000  0.000  0.000  0.000  0.000  0.000  0.000   1.16  58.34   0.64      0   7198     92.3   1.60   0.00   1.20    3.98    4.00    4.00    4.00    3.99    3.68      0      0      0       0     598 11.00
 2014 300   173   139   17.0      5   1.34   1503   2587   4374   2799   4090  11463   1346  325.0  0.382   7373      4  0.000  0.000  0.000  0.000  0.000  0.000  0.000   1.14  59.33   0.64      0   7373     88.9   1.60   0.00   1.20    3.96    4.00    4.00    3.99    3.99    3.68      0      0      0       0     612 11.15
 2014 301   174   140   17.0      5   1.28   1503   2587   4549   2797   4090  11638   1346  338.0  0.391   7548      4  0.000  0.000  0.000  0.000  0.000  0.000  0.000   1.12  60.27   0.65      0   7548     85.3   1.60   0.00   1.20    3.94    4.00    4.00    3.99    3.99    3.68      0      0      0       0     626 10.95
 2014 302   175   141   17.0      5   1.22   1503   2587   4724   2797   4090  11813   1346  351.0  0.400   7723      4  0.000  0.000  0.000  0.000  0.000  0.000  0.000   1.10  61.17   0.65      0   7723     81.4   1.60   0.00   1.20    3.92    4.00    4.00    3.99    3.99    3.68      0      0      0       0     640 11.65
 2014 303   176   142   17.0      5   1.16   1503   2587   4899   2794   4090  11988   1346  364.0  0.409   7898      4  0.000  0.000  0.000  0.000  0.000  0.000  0.000   1.08  62.03   0.66      0   7898     77.4   1.60   0.00   1.20    3.90    4.00    4.00    3.98    3.98    3.68      0      0      0       0     654 11.05
 2014 304   177   143   17.0      5   1.10   1503   2587   5074   2790   4090  12163   1346  377.0  0.417   8073      4  0.000  0.000  0.000  0.000  0.000  0.000  0.000   1.06  62.85   0.66      0   8073     72.9   1.60   0.00   1.20    3.88    4.00    4.00    3.97    3.97    3.67      0      0      0       0     668 12.05
 2014 305   178   144   17.0      5   1.03   1503   2587   5249   2785   4090  12338   1346  390.0  0.425   8248      4  0.000  0.000  0.000  0.000  0.000  0.000  0.000   1.04  63.64   0.67      0   8248     68.2   1.60   0.00   1.20    3.86    4.00    4.00    3.96    3.97    3.67      0      0      0       0     682 11.95
 2014 306   179   145   17.0      5   0.95   1503   2587   5424   2778   4090  12513   1346  403.0  0.433   8423      4  0.000  0.000  0.000  0.000  0.000  0.000  0.000   1.02  64.40   0.67      0   8423     63.3   1.60   0.00   1.20    3.84    4.00    4.00    3.95    3.95    3.66      0      0      0       0     696 12.05
 2014 307   180   146   17.0      5   0.95   1503   2587   5424   2778   4090  12513   1346  403.0  0.433   8423      4  0.000  0.000  0.000  0.000  0.000  0.000  0.000   1.02  64.40   0.67      0   8423     63.3   1.60   0.00   1.20    3.82    4.00    4.00    3.94    3.94    3.64      0      0      0       0     696 10.10
 2014 308   181   147   17.0      5   0.95   1503   2587   5424   2778   4090  12513   1346  403.0  0.433   8423      4  0.000  0.000  0.000  0.000  0.000  0.000  0.000   1.02  64.40   0.67      0   8423     63.3   1.60   0.00   1.20    3.80    4.00    4.00    3.92    3.93    3.63      0      0      0       0     696 10.15
 2014 309   182   148   17.0      5   0.95   1503   2587   5424   2778   4090  12513   1346  403.0  0.433   8423      4  0.000  0.000  0.000  0.000  0.000  0.000  0.000   1.02  64.40   0.67      0   8423     63.3   1.60   0.00   1.20    3.78    4.00    4.00    3.91    3.91    3.62      0      0      0       0     696 11.95
 2014 310   183   149   17.0      5   0.95   1503   2587   5424   2778   4090  12513   1346  403.0  0.433   8423      4  0.000  0.000  0.000  0.000  0.000  0.000  0.000   1.02  64.40   0.67      0   8423     63.3   1.60   0.00   1.20    3.76    4.00    4.00    3.90    3.90    3.61      0      0      0       0     696  0.00
 2014 311   184   150   17.0      5   0.95   1503   2587   5424   2778   4090  12513   1346  403.0  0.433   8423      4  0.000  0.000  0.000  0.000  0.000  0.000  0.000   1.02  64.40   0.67      0   8423     63.3   1.60   0.00   1.20    3.74    3.99    4.00    3.89    3.89    3.60      0      0      0       0     696 10.40
 2014 312   185   151   17.0      5   0.95   1503   2587   5424   2778   4090  12513   1346  403.0  0.433   8423      4  0.000  0.000  0.000  0.000  0.000  0.000  0.000   1.02  64.40   0.67      0   8423     63.3   1.60   0.00   1.20    3.72    3.99    4.00    3.87    3.88    3.59      0      0      0       0     696 11.90
 2014 313   186   152   17.0      5   0.95   1503   2587   5424   2778   4090  12513   1346  403.0  0.433   8423      4  0.000  0.000  0.000  0.000  0.000  0.000  0.000   1.02  64.40   0.67      0   8423     63.3   1.60   0.00   1.20    3.71    3.99    4.00    3.86    3.86    3.58      0      0      0       0     696 11.25
 2014 314   187   153   17.0      5   0.95   1503   2587   5424   2778   4090  12513   1346  403.0  0.433   8423      4  0.000  0.000  0.000  0.000  0.000  0.000  0.000   1.02  64.40   0.67      0   8423     63.3   1.60   0.00   1.20    3.69    3.99    4.00    3.85    3.85    3.57      0      0      0       0     696  9.65
 2014 315   188   154   17.0      5   0.95   1503   2587   5424   2778   4090  12513   1346  403.0  0.433   8423      4  0.000  0.000  0.000  0.000  0.000  0.000  0.000   1.02  64.40   0.67      0   8423     63.3   1.60   0.00   1.20    3.67    3.99    4.00    3.83    3.84    3.56      0      0      0       0     696 10.20
 2014 316   189   155   17.0      5   0.95   1503   2587   5424   2778   4090  12513   1346  403.0  0.433   8423      4  0.000  0.000  0.000  0.000  0.000  0.000  0.000   1.02  64.40   0.67      0   8423     63.3   1.60   0.00   1.20    3.65    3.99    4.00    3.82    3.83    3.55      0      0      0       0     696 11.25
 2014 317   190   156   17.0      5   0.95   1503   2587   5424   2778   4090  12513   1346  403.0  0.433   8423      4  0.000  0.000  0.000  0.000  0.000  0.000  0.000   1.02  64.40   0.67      0   8423     63.3   1.60   0.00   1.20    3.63    3.99    4.00    3.81    3.82    3.54      0      0      0       0     696 12.65
 2014 318   191   157   17.0      5   0.95   1503   2587   5424   2778   4090  12513   1346  403.0  0.433   8423      4  0.000  0.000  0.000  0.000  0.000  0.000  0.000   1.02  64.40   0.67      0   8423     63.3   1.60   0.00   1.20    3.61    3.99    4.00    3.80    3.80    3.52      0      0      0       0     696 12.65
 2014 319   192   158   17.0      5   0.95   1503   2587   5424   2778   4090  12513   1346  403.0  0.433   8423      4  0.000  0.000  0.000  0.000  0.000  0.000  0.000   1.02  64.40   0.67      0   8423     63.3   1.60   0.00   1.20    3.59    3.99    4.00    3.78    3.79    3.51      0      0      0       0     696 12.85
 2014 320   193   159   17.0      5   0.95   1503   2587   5424   2778   4090  12513   1346  403.0  0.433   8423      4  0.000  0.000  0.000  0.000  0.000  0.000  0.000   1.02  64.40   0.67      0   8423     63.3   1.60   0.00   1.20    3.57    3.99    4.00    3.77    3.78    3.50      0      0      0       0     696 13.40
 2014 321   194   160   17.0      5   0.95   1503   2587   5424   2778   4090  12513   1346  403.0  0.433   8423      4  0.000  0.000  0.000  0.000  0.000  0.000  0.000   1.02  64.40   0.67      0   8423     63.3   1.60   0.00   1.20    3.56    3.98    4.00    3.76    3.77    3.49      0      0      0       0     696 11.55
 2014 322   195   161   17.0      5   0.95   1503   2587   5424   2778   4090  12513   1346  403.0  0.433   8423      4  0.000  0.000  0.000  0.000  0.000  0.000  0.000   1.02  64.40   0.67      0   8423     63.3   1.60   0.00   1.20    3.56    3.98    4.00    3.75    3.76    3.48      0      0      0       0     696 12.65
 2014 323   196   162   17.0      5   0.95   1503   2587   5424   2778   4090  12513   1346  403.0  0.433   8423      4  0.000  0.000  0.000  0.000  0.000  0.000  0.000   1.02  64.40   0.67      0   8423     63.3   1.60   0.00   1.20    3.56    3.98    4.00    3.73    3.74    3.47      0      0      0       0     696 12.45
 2014 324   197   163   17.0      5   0.95   1503   2587   5424   2778   4090  12513   1346  403.0  0.433   8423      4  0.000  0.000  0.000  0.000  0.000  0.000  0.000   1.02  64.40   0.67      0   8423     63.3   1.60   0.00   1.20    3.56    3.98    4.00    3.72    3.73    3.46      0      0      0       0     696 12.50
 2014 325   198   164   17.0      5   0.95   1503   2587   5424   2778   4090  12513   1346  403.0  0.433   8423      4  0.000  0.000  0.000  0.000  0.000  0.000  0.000   1.02  64.40   0.67      0   8423     63.3   1.60   0.00   1.20    3.56    3.97    4.00    3.71    3.72    3.45      0      0      0       0     696 10.25
 2014 326   199   165   17.0      5   0.95   1503   2587   5424   2778   4090  12513   1346  403.0  0.433   8423      4  0.000  0.000  0.000  0.000  0.000  0.000  0.000   1.02  64.40   0.67      0   8423     63.3   1.60   0.00   1.20    3.56    3.97    4.00    3.70    3.71    3.44      0      0      0       0     696 12.75
 2014 327   200   166   17.0      5   0.95   1503   2587   5424   2778   4090  12513   1346  403.0  0.433   8423      4  0.000  0.000  0.000  0.000  0.000  0.000  0.000   1.02  64.40   0.67      0   8423     63.3   1.60   0.00   1.20    3.57    3.97    3.99    3.68    3.69    3.43      0      0      0       0     696 11.90
 2014 328   201   167   17.0      5   0.95   1503   2587   5424   2778   4090  12513   1346  403.0  0.433   8423      4  0.000  0.000  0.000  0.000  0.000  0.000  0.000   1.02  64.40   0.67      0   8423     63.3   1.60   0.00   1.20    3.57    3.96    3.99    3.67    3.68    3.42      0      0      0       0     696 12.65
 2014 329   202   168   17.0      5   0.95   1503   2587   5424   2778   4090  12513   1346  403.0  0.433   8423      4  0.000  0.000  0.000  0.000  0.000  0.000  0.000   1.02  64.40   0.67      0   8423     63.3   1.60   0.00   1.20    3.56    3.96    3.99    3.66    3.67    3.41      0      0      0       0     696 13.50
 2014 330   203   169   17.0      5   0.95   1503   2587   5424   2778   4090  12513   1346  403.0  0.433   8423      4  0.000  0.000  0.000  0.000  0.000  0.000  0.000   1.02  64.40   0.67      0   8423     63.3   1.60   0.00   1.20    3.56    3.95    3.99    3.65    3.66    3.40      0      0      0       0     696 13.70
 2014 331   204   170   17.0      5   0.95   1503   2587   5424   2778   4090  12513   1346  403.0  0.433   8423      4  0.000  0.000  0.000  0.000  0.000  0.000  0.000   1.02  64.40   0.67      0   8423     63.3   1.60   0.00   1.20    3.56    3.94    3.99    3.64    3.65    3.39      0      0      0       0     696 13.20
 2014 332   205   171   17.0      5   0.95   1503   2587   5424   2778   4090  12513   1346  403.0  0.433   8423      4  0.000  0.000  0.000  0.000  0.000  0.000  0.000   1.02  64.40   0.67      0   8423     63.3   1.60   0.00   1.20    3.55    3.93    3.99    3.63    3.64    3.38      0      0      0       0     696 12.90
 2014 333   206   172   17.0      5   0.95   1503   2587   5424   2778   4090  12513   1346  403.0  0.433   8423      4  0.000  0.000  0.000  0.000  0.000  0.000  0.000   1.02  64.40   0.67      0   8423     63.3   1.60   0.00   1.20    3.53    3.91    3.99    3.62    3.63    3.37      0      0      0       0     696 12.50
 2014 334   207   173   17.0      5   0.95   1503   2587   5424   2778   4090  12513   1346  403.0  0.433   8423      4  0.000  0.000  0.000  0.000  0.000  0.000  0.000   1.02  64.40   0.67      0   8423     63.3   1.60   0.00   1.20    3.51    3.90    3.98    3.61    3.62    3.36      0      0      0       0     696 11.95
 2014 335   208   174   17.0      5   0.95   1503   2587   5424   2778   4090  12513   1346  403.0  0.433   8423      4  0.000  0.000  0.000  0.000  0.000  0.000  0.000   1.02  64.40   0.67      0   8423     63.3   1.60   0.00   1.20    3.49    3.88    3.98    3.60    3.61    3.36      0      0      0       0     696 11.05
 2014 336   209   175   17.0      5   0.95   1503   2587   5424   2778   4090  12513   1346  403.0  0.433   8423      4  0.000  0.000  0.000  0.000  0.000  0.000  0.000   1.02  64.40   0.67      0   8423     63.3   1.60   0.00   1.20    3.48    3.86    3.97    3.59    3.61    3.35      0      0      0       0     696 11.95
 2014 337   210   176   17.0      5   0.95   1503   2587   5424   2778   4090  12513   1346  403.0  0.433   8423      4  0.000  0.000  0.000  0.000  0.000  0.000  0.000   1.02  64.40   0.67      0   8423     63.3   1.60   0.00   1.20    3.46    3.84    3.96    3.58    3.60    3.35      0      0      0       0     696 11.25
 2014 338   211   177   17.0      5   0.95   1503   2587   5424   2778   4090  12513   1346  403.0  0.433   8423      4  0.000  0.000  0.000  0.000  0.000  0.000  0.000   1.02  64.40   0.67      0   8423     63.3   1.60   0.00   1.20    3.44    3.82    3.95    3.58    3.59    3.34      0      0      0       0     696 10.40
 2014 339   212   178   17.0      5   0.95   1503   2587   5424   2778   4090  12513   1346  403.0  0.433   8423      4  0.000  0.000  0.000  0.000  0.000  0.000  0.000   1.02  64.40   0.67      0   8423     63.3   1.60   0.00   1.20    3.42    3.80    3.93    3.57    3.58    3.34      0      0      0       0     696 10.66
 2014 340   213   179   17.0      5   0.95   1503   2587   5424   2778   4090  12513   1346  403.0  0.433   8423      4  0.000  0.000  0.000  0.000  0.000  0.000  0.000   1.02  64.40   0.67      0   8423     63.3   1.60   0.00   1.20    3.40    3.78    3.92    3.56    3.58    3.33      0      0      0       0     696 11.35
 2014 341   214   180   17.0      5   0.95   1503   2587   5424   2778   4090  12513   1346  403.0  0.433   8423      4  0.000  0.000  0.000  0.000  0.000  0.000  0.000   1.02  64.40   0.67      0   8423     63.3   1.60   0.00   1.20    3.39    3.76    3.90    3.55    3.57    3.33      0      0      0       0     696 11.65
 2014 342   215   181   17.0      5   0.95   1503   2587   5424   2778   4090  12513   1346  403.0  0.433   8423      4  0.000  0.000  0.000  0.000  0.000  0.000  0.000   1.02  64.40   0.67      0   8423     63.3   1.60   0.00   1.20    3.37    3.74    3.88    3.55    3.56    3.33      0      0      0       0     696 10.00
 2014 343   216   182   17.0      5   0.95   1503   2587   5424   2778   4090  12513   1346  403.0  0.433   8423      4  0.000  0.000  0.000  0.000  0.000  0.000  0.000   1.02  64.40   0.67      0   8423     63.3   1.60   0.00   1.20    3.35    3.72    3.86    3.54    3.56    3.33      0      0      0       0     696 11.55
 2014 344   217   183   17.0      5   0.95   1503   2587   5424   2778   4090  12513   1346  403.0  0.433   8423      4  0.000  0.000  0.000  0.000  0.000  0.000  0.000   1.02  64.40   0.67      0   8423     63.3   1.60   0.00   1.20    3.33    3.71    3.84    3.53    3.55    3.33      0      0      0       0     696  9.75
 2014 345   218   184   17.0      5   0.95   1503   2587   5424   2778   4090  12513   1346  403.0  0.433   8423      4  0.000  0.000  0.000  0.000  0.000  0.000  0.000   1.02  64.40   0.67      0   8423     63.3   1.60   0.00   1.20    3.32    3.69    3.82    3.52    3.54    3.34      0      0      0       0     696  9.60
 2014 346   219   185   17.0      5   0.95   1503   2587   5424   2778   4090  12513   1346  403.0  0.433   8423      4  0.000  0.000  0.000  0.000  0.000  0.000  0.000   1.02  64.40   0.67      0   8423     63.3   1.60   0.00   1.20    3.30    3.67    3.80    3.50    3.53    3.35      0      0      0       0     696  8.40
 2014 347   220   186   17.0      5   0.95   1503   2587   5424   2778   4090  12513   1346  403.0  0.433   8423      4  0.000  0.000  0.000  0.000  0.000  0.000  0.000   1.02  64.40   0.67      0   8423     63.3   1.60   0.00   1.20    3.28    3.65    3.78    3.48    3.51    3.38      0      0      0       0     696  9.05
 2014 348   221   187   17.0      5   0.95   1503   2587   5424   2778   4090  12513   1346  403.0  0.433   8423      4  0.000  0.000  0.000  0.000  0.000  0.000  0.000   1.02  64.40   0.67      0   8423     63.3   1.60   0.00   1.20    3.27    3.63    3.76    3.46    3.49    3.40      0      0      0       0     696  9.10
 2014 349   222   188   17.0      5   0.95   1503   2587   5424   2778   4090  12513   1346  403.0  0.433   8423      4  0.000  0.000  0.000  0.000  0.000  0.000  0.000   1.02  64.40   0.67      0   8423     63.3   1.60   0.00   1.20    3.27    3.63    3.76    3.46    3.49    3.40      0      0      0       0     696  9.60
 2014 350   223   189   17.0      5   0.95   1503   2587   5424   2778   4090  12513   1346  403.0  0.433   8423      4  0.000  0.000  0.000  0.000  0.000  0.000  0.000   1.02  64.40   0.67      0   8423     63.3   1.60   0.00   1.20    3.27    3.63    3.76    3.46    3.49    3.40      0      0      0       0     696  9.80
 2014 351   224   190   17.0      5   0.95   1503   2587   5424   2778   4090  12513   1346  403.0  0.433   8423      4  0.000  0.000  0.000  0.000  0.000  0.000  0.000   1.02  64.40   0.67      0   8423     63.3   1.60   0.00   1.20    3.27    3.63    3.76    3.46    3.49    3.40      0      0      0       0     696 10.40
 2014 352   225   191   17.0      5   0.95   1503   2587   5424   2778   4090  12513   1346  403.0  0.433   8423      4  0.000  0.000  0.000  0.000  0.000  0.000  0.000   1.02  64.40   0.67      0   8423     63.3   1.60   0.00   1.20    3.27    3.63    3.76    3.46    3.49    3.40      0      0      0       0     696 10.95
 2014 353   226   192   17.0      5   0.95   1503   2587   5424   2778   4090  12513   1346  403.0  0.433   8423      4  0.000  0.000  0.000  0.000  0.000  0.000  0.000   1.02  64.40   0.67      0   8423     63.3   1.60   0.00   1.20    3.27    3.63    3.76    3.46    3.49    3.40      0      0      0       0     696 10.05
 2014 354   227   193   17.0      5   0.95   1503   2587   5424   2778   4090  12513   1346  403.0  0.433   8423      4  0.000  0.000  0.000  0.000  0.000  0.000  0.000   1.02  64.40   0.67      0   8423     63.3   1.60   0.00   1.20    3.27    3.63    3.76    3.46    3.49    3.40      0      0      0       0     696 10.30
 2014 355   228   194   17.0      5   0.95   1503   2587   5424   2778   4090  12513   1346  403.0  0.433   8423      4  0.000  0.000  0.000  0.000  0.000  0.000  0.000   1.02  64.40   0.67      0   8423     63.3   1.60   0.00   1.20    3.27    3.63    3.76    3.46    3.49    3.40      0      0      0       0     696 11.40
 2014 356   229   195   17.0      5   0.95   1503   2587   5424   2778   4090  12513   1346  403.0  0.433   8423      4  0.000  0.000  0.000  0.000  0.000  0.000  0.000   1.02  64.40   0.67      0   8423     63.3   1.60   0.00   1.20    3.27    3.63    3.76    3.46    3.49    3.40      0      0      0       0     696 10.10
 2014 357   230   196   17.0      5   0.95   1503   2587   5424   2778   4090  12513   1346  403.0  0.433   8423      4  0.000  0.000  0.000  0.000  0.000  0.000  0.000   1.02  64.40   0.67      0   8423     63.3   1.60   0.00   1.20    3.27    3.63    3.76    3.46    3.49    3.40      0      0      0       0     696 10.10
 2014 358   231   197   17.0      5   0.95   1503   2587   5424   2778   4090  12513   1346  403.0  0.433   8423      4  0.000  0.000  0.000  0.000  0.000  0.000  0.000   1.02  64.40   0.67      0   8423     63.3   1.60   0.00   1.20    3.27    3.63    3.76    3.46    3.49    3.40      0      0      0       0     696 10.05
 2014 359   232   198   17.0      5   0.95   1503   2587   5424   2778   4090  12513   1346  403.0  0.433   8423      4  0.000  0.000  0.000  0.000  0.000  0.000  0.000   1.02  64.40   0.67      0   8423     63.3   1.60   0.00   1.20    3.27    3.63    3.76    3.46    3.49    3.40      0      0      0       0     696 12.00
 2014 360   233   199   17.0      5   0.95   1503   2587   5424   2778   4090  12513   1346  403.0  0.433   8423      4  0.000  0.000  0.000  0.000  0.000  0.000  0.000   1.02  64.40   0.67      0   8423     63.3   1.60   0.00   1.20    3.27    3.63    3.76    3.46    3.49    3.40      0      0      0       0     696 10.30
 2014 361   234   200   17.0      5   0.95   1503   2587   5424   2778   4090  12513   1346  403.0  0.433   8423      4  0.000  0.000  0.000  0.000  0.000  0.000  0.000   1.02  64.40   0.67      0   8423     63.3   1.60   0.00   1.20    3.27    3.63    3.76    3.46    3.49    3.40      0      0      0       0     696 12.25
 2014 362   235   201   17.0      5   0.95   1503   2587   5424   2778   4090  12513   1346  403.0  0.433   8423      4  0.000  0.000  0.000  0.000  0.000  0.000  0.000   1.02  64.40   0.67      0   8423     63.3   1.60   0.00   1.20    3.27    3.63    3.76    3.46    3.49    3.40      0      0      0       0     696 11.35
 2014 363   236   202   17.0      5   0.95   1503   2587   5424   2778   4090  12513   1346  403.0  0.433   8423      4  0.000  0.000  0.000  0.000  0.000  0.000  0.000   1.02  64.40   0.67      0   8423     63.3   1.60   0.00   1.20    3.27    3.63    3.76    3.46    3.49    3.40      0      0      0       0     696 10.40
