*SOIL INORGANIC N BALANCE

*DSSAT Cropping System Model Ver. 4.7.2.000 -release      OCT 15, 2021; 17:59:32
                                                                                
*RUN   1        :             CSM335_date_1 MZCER047 ITSA1301    1              
 MODEL          : MZCER047 - Maize                                              
 EXPERIMENT     : ITSA1301 SG CALIBRATION SETUP OF SORGHUM SOWING DATES         
 DATA PATH      :                                                               
 TREATMENT  1   :             CSM335_date_1 MZCER047                            
  


!SOIL INORGANIC N BALANCE                         Initial               Final
!                                                Year/Doy            Year/Doy
!                                                2014/128            2014/363
!                                               (kg[N]/ha)          (kg[N]/ha)
! Soil N state variables:
!   Soil NO3                                         0.00               76.04
!   Soil NH4                                        10.22                0.31
!   Soil Urea                                        0.00                0.00
!   Soil N gases                                     0.00                0.91

! N additions:
!   Fertilizer N                                    86.00
!   Mineralized N                                  294.46

! N subtractions:
!   N immobilized                                                       76.93
!   N leached                                                           53.34
!   N loss to tile drainage                                              0.00
!   N Uptake From Soil                                                 170.21
!   NH3 loss                                                             0.00
!   N2O loss                                                             0.43
!   N2 loss                                                             12.37
!   NO loss                                                              0.14

!   Total N balance                                390.68              390.68
!   Balance                                                            -0.000
