*SOIL WATER DAILY OUTPUT FILE

*DSSAT Cropping System Model Ver. 4.7.2.000 -release      OCT 15, 2021; 17:59:32
                                                                                
*RUN   1        :             CSM335_date_1 MZCER047 ITSA1301    1              
 MODEL          : MZCER047 - Maize                                              
 EXPERIMENT     : ITSA1301 SG CALIBRATION SETUP OF SORGHUM SOWING DATES         
 DATA PATH      :                                                               
 TREATMENT  1   :             CSM335_date_1 MZCER047                            
  
!                                                                                                 Soil water content (mm3/mm3) by soil depth (cm):
!                                                                                                 0-5    5-15   15-30   30-60   60-90  90-120
@YEAR DOY   DAS  SWTD  SWXD   ROFC   DRNC   PREC  IR#C  IRRC  DTWT    MWTD  TDFD  TDFC   ROFD    SW1D    SW2D    SW3D    SW4D    SW5D    SW6D    
 2014 127     0   292     0      0      0      0     0     0     0    0.00   0.0   0.0   0.00   0.243   0.243   0.243   0.243   0.243   0.243
 2014 128     1   295     3      0      0      4     0     0    60    0.00   0.0   0.0   0.00   0.308   0.242   0.243   0.243   0.243   0.243
 2014 129     2   299     7      0      0     10     0     0   120    0.00   0.0   0.0   0.00   0.369   0.255   0.243   0.243   0.243   0.243
 2014 130     3   303    11      0      0     18     0     0   120    0.00   0.0   0.0   0.00   0.379   0.308   0.239   0.241   0.242   0.242
 2014 131     4   308    16      0      0     28     0     0   120    0.00   0.0   0.0   0.00   0.367   0.371   0.245   0.238   0.240   0.240
 2014 132     5   305    14      0      0     32     0     0   120    0.00   0.0   0.0   0.00   0.365   0.365   0.247   0.236   0.238   0.239
 2014 133     6   303    12      0      0     36     0     0   120    0.00   0.0   0.0   0.00   0.365   0.363   0.246   0.233   0.236   0.237
 2014 134     7   308    17      0      0     46     0     0   120    0.00   0.0   0.0   0.00   0.368   0.388   0.273   0.230   0.234   0.236
 2014 135     8   303    12      0      0     47     0     0   120    0.00   0.0   0.0   0.00   0.342   0.366   0.275   0.228   0.232   0.234
 2014 136     9   304    12      0      0     54     0     0   120    0.00   0.0   0.0   0.00   0.367   0.369   0.280   0.225   0.230   0.233
 2014 137    10   320    28      0      0     75     0     0   120    0.00   0.0   0.0   0.00   0.372   0.389   0.373   0.227   0.229   0.232
 2014 138    11   326    34      0      0     87     0     0   120    0.00   0.0   0.0   0.00   0.373   0.389   0.389   0.242   0.227   0.230
 2014 139    12   324    32      0      0     91     0     0   120    0.00   0.0   0.0   0.00   0.371   0.375   0.378   0.249   0.226   0.229
 2014 140    13   319    28      0      0     91     0     0   120    0.00   0.0   0.0   0.00   0.343   0.365   0.369   0.249   0.224   0.228
 2014 141    14   337    45      0      0    115     0     0   120    0.00   0.0   0.0   0.00   0.374   0.389   0.395   0.285   0.223   0.227
 2014 142    15   340    48      0      0    121     0     0   120    0.00   0.0   0.0   0.00   0.385   0.391   0.387   0.297   0.222   0.226
 2014 143    16   346    54      0      0    133     0     0   120    0.00   0.0   0.0   0.00   0.374   0.390   0.395   0.319   0.220   0.225
 2014 144    17   352    60      0      0    142     0     0   120    0.00   0.0   0.0   0.00   0.383   0.393   0.395   0.336   0.219   0.224
 2014 145    18   349    58      0      0    142     0     0   120    0.00   0.0   0.0   0.00   0.363   0.376   0.379   0.346   0.219   0.224
 2014 146    19   361    69      0      0    159     0     0   120    0.00   0.0   0.0   0.00   0.375   0.390   0.395   0.372   0.218   0.223
 2014 147    20   368    77      0      0    173     0     0   120    0.00   0.0   0.0   0.00   0.374   0.389   0.395   0.382   0.236   0.221
 2014 148    21   364    72      0      0    175     0     0   120    0.00   0.0   0.0   0.00   0.352   0.370   0.378   0.376   0.245   0.220
 2014 149    22   365    74      0      0    182     0     0   120    0.00   0.0   0.0   0.00   0.375   0.379   0.375   0.373   0.249   0.219
 2014 150    23   369    78      0      0    193     0     0   120    0.00   0.0   0.0   0.00   0.372   0.389   0.384   0.374   0.255   0.218
 2014 151    24   363    72      0      0    193     0     0   120    0.00   0.0   0.0   0.00   0.339   0.367   0.370   0.370   0.260   0.217
 2014 152    25   367    75      0      0    198     0     0   120    0.00   0.0   0.0   0.00   0.375   0.376   0.375   0.370   0.260   0.217
 2014 153    26   361    69      0      0    198     0     0   120    0.00   0.0   0.0   0.00   0.345   0.364   0.368   0.366   0.258   0.216
 2014 154    27   359    68      0      0    198     0     0   120    0.00   0.0   0.0   0.00   0.319   0.363   0.368   0.366   0.258   0.216
 2014 155    28   358    66      0      0    198     0     0   120    0.00   0.0   0.0   0.00   0.295   0.361   0.368   0.366   0.258   0.216
 2014 156    29   365    73      0      0    206     0     0   120    0.00   0.0   0.0   0.00   0.379   0.377   0.373   0.366   0.258   0.216
 2014 157    30   362    70      0      0    209     0     0   120    0.00   0.0   0.0   0.00   0.372   0.371   0.370   0.364   0.257   0.215
 2014 158    31   360    69      0      0    209     0     0   120    0.00   0.0   0.0   0.00   0.343   0.369   0.370   0.364   0.257   0.215
 2014 159    32   361    69      0      0    213     0     0   120    0.00   0.0   0.0   0.00   0.380   0.370   0.370   0.362   0.256   0.214
 2014 160    33   373    81      0      0    230     0     0   120    0.00   0.0   0.0   0.00   0.377   0.391   0.396   0.375   0.263   0.213
 2014 161    34   371    80      0      0    234     0     0   120    0.00   0.0   0.0   0.00   0.379   0.379   0.383   0.375   0.270   0.212
 2014 162    35   379    87      0      0    247     0     0   120    0.00   0.0   0.0   0.00   0.378   0.391   0.395   0.379   0.282   0.211
 2014 163    36   380    88      0      0    253     0     0   120    0.00   0.0   0.0   0.00   0.378   0.388   0.386   0.378   0.293   0.211
 2014 164    37   391    99      0      0    270     0     0   120    0.00   0.0   0.0   0.00   0.375   0.390   0.395   0.387   0.317   0.210
 2014 165    38   388    97      0      0    273     0     0   120    0.00   0.0   0.0   0.00   0.373   0.375   0.381   0.379   0.330   0.209
 2014 166    39   385    93      0      0    275     0     0   120    0.00   0.0   0.0   0.00   0.362   0.367   0.372   0.373   0.333   0.208
 2014 167    40   379    87      0      0    275     0     0   120    0.00   0.0   0.0   0.00   0.333   0.356   0.365   0.369   0.331   0.207
 2014 168    41   379    87      0      0    276     0     0   120    0.00   0.0   0.0   0.00   0.334   0.354   0.365   0.369   0.331   0.207
 2014 169    42   383    91      0      0    282     0     0   120    0.00   0.0   0.0   0.00   0.377   0.373   0.366   0.369   0.331   0.207
 2014 170    43   379    88      0      0    282     0     0   120    0.00   0.0   0.0   0.00   0.355   0.366   0.363   0.366   0.329   0.206
 2014 171    44   380    88      0      0    288     0     0   120    0.00   0.0   0.0   0.00   0.379   0.373   0.368   0.363   0.327   0.205
 2014 172    45   386    94      0      0    300     0     0   120    0.00   0.0   0.0   0.00   0.377   0.391   0.384   0.372   0.325   0.204
 2014 173    46   387    96      0      0    306     0     0   120    0.00   0.0   0.0   0.00   0.380   0.389   0.383   0.374   0.329   0.203
 2014 174    47   393   101      0      0    316     0     0   120    0.00   0.0   0.0   0.00   0.384   0.393   0.391   0.377   0.339   0.203
 2014 175    48   392   100      0      0    318     0     0   120    0.00   0.0   0.0   0.00   0.382   0.380   0.382   0.376   0.346   0.202
 2014 176    49   395   103      0      0    326     0     0   120    0.00   0.0   0.0   0.00   0.383   0.393   0.383   0.376   0.352   0.202
 2014 177    50   395   103      0      0    331     0     0   120    0.00   0.0   0.0   0.00   0.382   0.386   0.381   0.375   0.358   0.201
 2014 178    51   397   105      0      0    337     0     0   120    0.00   0.0   0.0   0.00   0.382   0.389   0.381   0.375   0.363   0.200
 2014 179    52   395   104      0      0    341     0     0   120    0.00   0.0   0.0   0.00   0.379   0.379   0.377   0.373   0.367   0.199
 2014 180    53   398   106      0      0    348     0     0   120    0.00   0.0   0.0   0.00   0.377   0.390   0.380   0.374   0.370   0.199
 2014 181    54   394   103      0      0    350     0     0   120    0.00   0.0   0.0   0.00   0.366   0.374   0.374   0.372   0.372   0.198
 2014 182    55   403   111      0      0    364     0     0   120    0.00   0.0   0.0   0.00   0.381   0.392   0.391   0.377   0.374   0.202
 2014 183    56   402   110      0      0    368     0     0   120    0.00   0.0   0.0   0.00   0.378   0.383   0.383   0.376   0.375   0.208
 2014 184    57   408   117      0      0    379     0     0   120    0.00   0.0   0.0   0.00   0.379   0.391   0.392   0.378   0.377   0.216
 2014 185    58   410   119      0      0    386     0     0   120    0.00   0.0   0.0   0.00   0.382   0.392   0.387   0.378   0.377   0.224
 2014 186    59   423   132      0      0    404     0     0   120    0.00   0.0   0.0   0.00   0.383   0.393   0.397   0.390   0.385   0.244
 2014 187    60   425   134      0      0    409     0     0   120    0.00   0.0   0.0   0.00   0.389   0.391   0.388   0.383   0.384   0.261
 2014 188    61   450   158      0      0    438     0     0   120    0.00   0.0   0.0   0.00   0.386   0.394   0.397   0.399   0.400   0.305
 2014 189    62   459   167      0      0    452     0     0   120    0.00   0.0   0.0   0.00   0.383   0.393   0.396   0.396   0.397   0.344
 2014 190    63   459   167      0      0    456     0     0   120    0.00   0.0   0.0   0.00   0.384   0.385   0.386   0.385   0.390   0.370
 2014 191    64   462   171      0      3    467     0     0   117    0.00   0.0   0.0   0.00   0.387   0.394   0.395   0.383   0.386   0.379
 2014 192    65   463   172      0      8    477     0     0   116    0.00   0.0   0.0   0.00   0.385   0.393   0.397   0.384   0.384   0.382
 2014 193    66   457   165      0     12    479     0     0   117    0.00   0.0   0.0   0.00   0.378   0.379   0.383   0.379   0.381   0.381
 2014 194    67   458   167      0     16    489     0     0   117    0.00   0.0   0.0   0.00   0.385   0.393   0.389   0.379   0.380   0.380
 2014 195    68   447   155      0     23    489     0     0   119    0.00   0.0   0.0   0.00   0.355   0.372   0.374   0.372   0.374   0.374
 2014 196    69   457   165      0     24    503     0     0   119    0.00   0.0   0.0   0.00   0.392   0.396   0.393   0.378   0.376   0.375
 2014 197    70   455   163      0     26    508     0     0   119    0.00   0.0   0.0   0.00   0.383   0.388   0.385   0.377   0.377   0.376
 2014 198    71   460   168      0     29    520     0     0   118    0.00   0.0   0.0   0.00   0.388   0.394   0.397   0.381   0.379   0.378
 2014 199    72   461   170      0     32    529     0     0   117    0.00   0.0   0.0   0.00   0.389   0.395   0.397   0.382   0.381   0.380
 2014 200    73   467   176      0     37    543     0     0   115    0.00   0.0   0.0   0.00   0.391   0.395   0.398   0.390   0.387   0.384
 2014 201    74   468   177      0     44    555     0     0   114    0.00   0.0   0.0   0.00   0.388   0.394   0.397   0.390   0.389   0.387
 2014 202    75   470   178      0     52    568     0     0   113    0.00   0.0   0.0   0.00   0.393   0.396   0.398   0.391   0.390   0.389
 2014 203    76   465   173      0     58    572     0     0   114    0.00   0.0   0.0   0.00   0.394   0.393   0.390   0.384   0.386   0.387
 2014 204    77   451   159      0     69    572     0     0   118    0.00   0.0   0.0   0.00   0.367   0.375   0.376   0.375   0.377   0.378
 2014 205    78   449   157      0     70    574     0     0   119    0.00   0.0   0.0   0.00   0.378   0.372   0.372   0.372   0.374   0.376
 2014 206    79   445   153      0     70    574     0     0   119    0.00   0.0   0.0   0.00   0.361   0.367   0.369   0.370   0.372   0.375
 2014 207    80   443   151      0     70    574     0     0   119    0.00   0.0   0.0   0.00   0.332   0.364   0.367   0.369   0.372   0.375
 2014 208    81   449   157      0     70    583     0     0   120    0.00   0.0   0.0   0.00   0.394   0.386   0.374   0.370   0.371   0.374
 2014 209    82   453   162      0     71    593     0     0   120    0.00   0.0   0.0   0.00   0.390   0.395   0.388   0.375   0.373   0.373
 2014 210    83   453   161      0     72    595     0     0   120    0.00   0.0   0.0   0.00   0.394   0.385   0.382   0.375   0.374   0.374
 2014 211    84   448   156      0     74    595     0     0   120    0.00   0.0   0.0   0.00   0.371   0.373   0.373   0.373   0.373   0.373
 2014 212    85   456   165      0     75    607     0     0   119    0.00   0.0   0.0   0.00   0.397   0.398   0.390   0.377   0.375   0.375
 2014 213    86   466   175      0     78    623     0     0   117    0.00   0.0   0.0   0.00   0.397   0.398   0.399   0.391   0.385   0.381
 2014 214    87   452   160      0     90    623     0     0   119    0.00   0.0   0.0   0.00   0.371   0.377   0.380   0.378   0.376   0.375
 2014 215    88   450   159      0     91    627     0     0   119    0.00   0.0   0.0   0.00   0.391   0.377   0.375   0.374   0.374   0.375
 2014 216    89   446   155      0     92    627     0     0   120    0.00   0.0   0.0   0.00   0.369   0.369   0.371   0.371   0.373   0.374
 2014 217    90   448   157      0     92    632     0     0   120    0.00   0.0   0.0   0.00   0.395   0.380   0.373   0.372   0.371   0.373
 2014 218    91   447   156      0     92    635     0     0   120    0.00   0.0   0.0   0.00   0.394   0.378   0.373   0.372   0.369   0.372
 2014 219    92   459   168      0     93    653     0     0   119    0.00   0.0   0.0   0.00   0.391   0.395   0.397   0.384   0.378   0.375
 2014 220    93   460   168      0     96    658     0     0   118    0.00   0.0   0.0   0.00   0.397   0.396   0.390   0.381   0.380   0.378
 2014 221    94   454   163      0     99    660     0     0   118    0.00   0.0   0.0   0.00   0.385   0.382   0.381   0.377   0.378   0.378
 2014 222    95   447   155      0    103    660     0     0   120    0.00   0.0   0.0   0.00   0.367   0.371   0.372   0.372   0.373   0.374
 2014 223    96   458   166      0    104    677     0     0   119    0.00   0.0   0.0   0.00   0.393   0.396   0.397   0.379   0.376   0.375
 2014 224    97   457   165      0    106    679     0     0   118    0.00   0.0   0.0   0.00   0.401   0.388   0.388   0.379   0.378   0.377
 2014 225    98   466   174      0    111    697     0     0   116    0.00   0.0   0.0   0.00   0.392   0.395   0.397   0.390   0.385   0.382
 2014 226    99   469   177      0    118    713     0     0   114    0.00   0.0   0.0   0.00   0.390   0.394   0.396   0.394   0.390   0.386
 2014 227   100   469   177      0    125    724     0     0   114    0.00   0.0   0.0   0.00   0.393   0.396   0.397   0.389   0.389   0.388
 2014 228   101   469   177      0    133    736     0     0   114    0.00   0.0   0.0   0.00   0.394   0.396   0.397   0.389   0.389   0.388
 2014 229   102   464   172      0    139    740     0     0   114    0.00   0.0   0.0   0.00   0.399   0.392   0.389   0.383   0.385   0.386
 2014 230   103   460   169      0    144    746     0     0   116    0.00   0.0   0.0   0.00   0.394   0.396   0.388   0.379   0.381   0.383
 2014 231   104   464   172      0    149    757     0     0   116    0.00   0.0   0.0   0.00   0.397   0.397   0.398   0.384   0.382   0.383
 2014 232   105   467   175      0    155    769     0     0   115    0.00   0.0   0.0   0.00   0.399   0.398   0.399   0.388   0.386   0.384
 2014 233   106   465   173      0    160    776     0     0   115    0.00   0.0   0.0   0.00   0.396   0.397   0.396   0.384   0.384   0.384
 2014 234   107   461   169      0    165    780     0     0   116    0.00   0.0   0.0   0.00   0.399   0.393   0.388   0.381   0.382   0.383
 2014 235   108   457   166      0    169    783     0     0   117    0.00   0.0   0.0   0.00   0.398   0.389   0.384   0.378   0.379   0.380
 2014 236   109   465   173      0    174    800     0     0   116    0.00   0.0   0.0   0.00   0.394   0.395   0.397   0.388   0.383   0.382
 2014 237   110   470   178      0    181    817     0     0   114    0.00   0.0   0.0   0.00   0.394   0.396   0.397   0.395   0.390   0.386
 2014 238   111   470   178      0    188    826     0     0   114    0.00   0.0   0.0   0.00   0.401   0.399   0.399   0.389   0.389   0.388
 2014 239   112   463   171      0    195    831     0     0   115    0.00   0.0   0.0   0.00   0.394   0.394   0.390   0.382   0.384   0.385
 2014 240   113   457   166      0    199    835     0     0   117    0.00   0.0   0.0   0.00   0.394   0.389   0.383   0.377   0.379   0.381
 2014 241   114   463   171      0    204    848     0     0   117    0.00   0.0   0.0   0.00   0.398   0.397   0.398   0.383   0.381   0.381
 2014 242   115   466   174      0    209    859     0     0   116    0.00   0.0   0.0   0.00   0.399   0.398   0.398   0.387   0.384   0.383
 2014 243   116   465   174      0    214    868     0     0   116    0.00   0.0   0.0   0.00   0.398   0.398   0.398   0.385   0.384   0.383
 2014 244   117   466   175      0    220    877     0     0   115    0.00   0.0   0.0   0.00   0.399   0.398   0.399   0.386   0.385   0.384
 2014 245   118   460   169      0    225    880     0     0   116    0.00   0.0   0.0   0.00   0.399   0.387   0.387   0.381   0.382   0.382
 2014 246   119   457   165      0    229    883     0     0   117    0.00   0.0   0.0   0.00   0.399   0.386   0.382   0.377   0.379   0.380
 2014 247   120   452   161      0    231    885     0     0   118    0.00   0.0   0.0   0.00   0.395   0.381   0.377   0.374   0.375   0.377
 2014 248   121   452   161      0    233    890     0     0   119    0.00   0.0   0.0   0.00   0.399   0.389   0.379   0.374   0.374   0.375
 2014 249   122   462   170      0    235    905     0     0   118    0.00   0.0   0.0   0.00   0.399   0.398   0.398   0.385   0.380   0.377
 2014 250   123   459   167      0    238    907     0     0   118    0.00   0.0   0.0   0.00   0.398   0.387   0.387   0.381   0.380   0.379
 2014 251   124   449   157      0    245    907     0     0   120    0.00   0.0   0.0   0.00   0.377   0.375   0.376   0.374   0.374   0.374
 2014 252   125   450   159      0    245    912     0     0   120    0.00   0.0   0.0   0.00   0.400   0.384   0.377   0.373   0.373   0.373
 2014 253   126   446   154      0    247    912     0     0   120    0.00   0.0   0.0   0.00   0.378   0.374   0.371   0.371   0.371   0.371
 2014 254   127   457   165      0    248    929     0     0   120    0.00   0.0   0.0   0.00   0.397   0.396   0.397   0.379   0.375   0.373
 2014 255   128   466   174      0    252    946     0     0   117    0.00   0.0   0.0   0.00   0.398   0.397   0.397   0.392   0.384   0.379
 2014 256   129   469   178      0    258    959     0     0   115    0.00   0.0   0.0   0.00   0.399   0.398   0.398   0.393   0.389   0.384
 2014 257   130   463   171      0    264    963     0     0   116    0.00   0.0   0.0   0.00   0.398   0.391   0.388   0.383   0.384   0.384
 2014 258   131   467   176      0    271    979     0     0   115    0.00   0.0   0.0   0.00   0.397   0.396   0.397   0.390   0.386   0.385
 2014 259   132   463   171      0    276    984     0     0   116    0.00   0.0   0.0   0.00   0.401   0.394   0.390   0.383   0.384   0.383
 2014 260   133   462   170      0    281    992     0     0   117    0.00   0.0   0.0   0.00   0.399   0.397   0.395   0.381   0.381   0.381
 2014 261   134   465   174      0    287   1006     0     0   116    0.00   0.0   0.0   0.00   0.398   0.396   0.397   0.388   0.384   0.382
 2014 262   135   459   168      0    291   1009     0     0   117    0.00   0.0   0.0   0.00   0.398   0.389   0.387   0.381   0.381   0.380
 2014 263   136   453   162      0    295   1011     0     0   118    0.00   0.0   0.0   0.00   0.396   0.382   0.380   0.375   0.376   0.377
 2014 264   137   450   158      0    296   1014     0     0   120    0.00   0.0   0.0   0.00   0.398   0.381   0.377   0.372   0.373   0.373
 2014 265   138   451   160      0    297   1021     0     0   120    0.00   0.0   0.0   0.00   0.398   0.396   0.381   0.373   0.371   0.371
 2014 266   139   456   164      0    298   1030     0     0   120    0.00   0.0   0.0   0.00   0.399   0.397   0.395   0.377   0.374   0.372
 2014 267   140   453   162      0    299   1033     0     0   120    0.00   0.0   0.0   0.00   0.398   0.388   0.386   0.376   0.374   0.372
 2014 268   141   453   162      0    300   1039     0     0   120    0.00   0.0   0.0   0.00   0.397   0.396   0.385   0.375   0.373   0.372
 2014 269   142   451   159      0    300   1042     0     0   120    0.00   0.0   0.0   0.00   0.398   0.386   0.381   0.374   0.372   0.371
 2014 270   143   446   154      0    302   1042     0     0   120    0.00   0.0   0.0   0.00   0.377   0.375   0.373   0.371   0.370   0.371
 2014 271   144   445   154      0    302   1045     0     0   120    0.00   0.0   0.0   0.00   0.397   0.377   0.373   0.371   0.367   0.368
 2014 272   145   443   151      0    302   1048     0     0   120    0.00   0.0   0.0   0.00   0.397   0.378   0.373   0.370   0.364   0.365
 2014 273   146   447   155      0    302   1056     0     0   120    0.00   0.0   0.0   0.00   0.398   0.397   0.384   0.372   0.365   0.362
 2014 274   147   447   155      0    302   1061     0     0   120    0.00   0.0   0.0   0.00   0.397   0.395   0.384   0.373   0.368   0.359
 2014 275   148   445   154      0    302   1063     0     0   120    0.00   0.0   0.0   0.00   0.396   0.385   0.380   0.373   0.370   0.356
 2014 276   149   443   152      0    302   1066     0     0   120    0.00   0.0   0.0   0.00   0.398   0.381   0.377   0.372   0.370   0.354
 2014 277   150   457   166      0    302   1084     0     0   120    0.00   0.0   0.0   0.00   0.398   0.397   0.398   0.386   0.378   0.364
 2014 278   151   467   175      0    304   1099     0     0   118    0.00   0.0   0.0   0.00   0.401   0.399   0.399   0.393   0.386   0.377
 2014 279   152   461   169      0    308   1101     0     0   117    0.00   0.0   0.0   0.00   0.400   0.388   0.388   0.384   0.384   0.380
 2014 280   153   457   165      0    312   1106     0     0   118    0.00   0.0   0.0   0.00   0.397   0.391   0.384   0.378   0.379   0.378
 2014 281   154   461   170      0    316   1119     0     0   118    0.00   0.0   0.0   0.00   0.397   0.396   0.397   0.383   0.380   0.378
 2014 282   155   463   172      0    320   1130     0     0   117    0.00   0.0   0.0   0.00   0.397   0.397   0.398   0.386   0.382   0.380
 2014 283   156   464   172      0    325   1139     0     0   117    0.00   0.0   0.0   0.00   0.398   0.397   0.398   0.385   0.383   0.381
 2014 284   157   449   157      0    335   1139     0     0   120    0.00   0.0   0.0   0.00   0.374   0.377   0.379   0.374   0.373   0.373
 2014 285   158   446   155      0    335   1141     0     0   120    0.00   0.0   0.0   0.00   0.384   0.374   0.373   0.371   0.372   0.370
 2014 286   159   442   151      0    335   1141     0     0   120    0.00   0.0   0.0   0.00   0.369   0.369   0.370   0.369   0.369   0.367
 2014 287   160   438   146      0    335   1141     0     0   120    0.00   0.0   0.0   0.00   0.348   0.366   0.367   0.366   0.366   0.365
 2014 288   161   433   141      0    335   1141     0     0   120    0.00   0.0   0.0   0.00   0.322   0.361   0.363   0.363   0.363   0.362
 2014 289   162   428   136      0    335   1141     0     0   120    0.00   0.0   0.0   0.00   0.295   0.356   0.360   0.360   0.360   0.359
 2014 290   163   423   131      0    335   1141     0     0   120    0.00   0.0   0.0   0.00   0.273   0.351   0.356   0.356   0.357   0.356
 2014 291   164   418   126      0    335   1141     0     0   120    0.00   0.0   0.0   0.00   0.253   0.346   0.353   0.353   0.353   0.353
 2014 292   165   413   122      0    335   1141     0     0   120    0.00   0.0   0.0   0.00   0.236   0.341   0.349   0.350   0.350   0.350
 2014 293   166   424   133      0    335   1157     0     0   120    0.00   0.0   0.0   0.00   0.382   0.384   0.362   0.347   0.347   0.348
 2014 294   167   419   128      0    335   1157     0     0   120    0.00   0.0   0.0   0.00   0.365   0.371   0.363   0.343   0.344   0.345
 2014 295   168   414   122      0    335   1157     0     0   120    0.00   0.0   0.0   0.00   0.334   0.366   0.360   0.340   0.341   0.342
 2014 296   169   409   117      0    335   1157     0     0   120    0.00   0.0   0.0   0.00   0.306   0.362   0.357   0.337   0.338   0.339
 2014 297   170   404   113      0    335   1157     0     0   120    0.00   0.0   0.0   0.00   0.282   0.357   0.353   0.334   0.335   0.336
 2014 298   171   400   108      0    335   1157     0     0   120    0.00   0.0   0.0   0.00   0.261   0.352   0.350   0.331   0.332   0.334
 2014 299   172   396   104      0    335   1157     0     0   120    0.00   0.0   0.0   0.00   0.243   0.348   0.347   0.328   0.329   0.331
 2014 300   173   392   100      0    335   1157     0     0   120    0.00   0.0   0.0   0.00   0.226   0.343   0.344   0.325   0.327   0.329
 2014 301   174   388    96      0    335   1157     0     0   120    0.00   0.0   0.0   0.00   0.212   0.339   0.341   0.323   0.324   0.327
 2014 302   175   384    92      0    335   1157     0     0   120    0.00   0.0   0.0   0.00   0.198   0.335   0.338   0.320   0.321   0.324
 2014 303   176   380    89      0    335   1157     0     0   120    0.00   0.0   0.0   0.00   0.186   0.330   0.335   0.318   0.319   0.322
 2014 304   177   377    85      0    335   1157     0     0   120    0.00   0.0   0.0   0.00   0.175   0.326   0.332   0.316   0.317   0.319
 2014 305   178   373    82      0    335   1157     0     0   120    0.00   0.0   0.0   0.00   0.165   0.321   0.328   0.314   0.315   0.317
 2014 306   179   370    78      0    335   1157     0     0   120    0.00   0.0   0.0   0.00   0.156   0.316   0.324   0.312   0.313   0.315
 2014 307   180   367    75      0    335   1157     0     0   120    0.00   0.0   0.0   0.00   0.148   0.312   0.320   0.310   0.311   0.313
 2014 308   181   364    72      0    335   1157     0     0   120    0.00   0.0   0.0   0.00   0.141   0.309   0.316   0.308   0.309   0.311
 2014 309   182   361    69      0    335   1157     0     0   120    0.00   0.0   0.0   0.00   0.134   0.305   0.313   0.306   0.307   0.309
 2014 310   183   358    66      0    335   1157     0     0   120    0.00   0.0   0.0   0.00   0.128   0.302   0.310   0.304   0.305   0.307
 2014 311   184   355    63      0    335   1157     0     0   120    0.00   0.0   0.0   0.00   0.123   0.299   0.307   0.302   0.303   0.305
 2014 312   185   352    61      0    335   1157     0     0   120    0.00   0.0   0.0   0.00   0.118   0.296   0.304   0.300   0.301   0.303
 2014 313   186   350    58      0    335   1157     0     0   120    0.00   0.0   0.0   0.00   0.113   0.293   0.301   0.298   0.299   0.301
 2014 314   187   347    55      0    335   1157     0     0   120    0.00   0.0   0.0   0.00   0.110   0.290   0.298   0.296   0.297   0.299
 2014 315   188   344    53      0    335   1157     0     0   120    0.00   0.0   0.0   0.00   0.106   0.287   0.296   0.294   0.295   0.297
 2014 316   189   341    50      0    335   1157     0     0   120    0.00   0.0   0.0   0.00   0.103   0.284   0.293   0.292   0.293   0.295
 2014 317   190   339    47      0    335   1157     0     0   120    0.00   0.0   0.0   0.00   0.100   0.282   0.291   0.290   0.291   0.292
 2014 318   191   336    45      0    335   1157     0     0   120    0.00   0.0   0.0   0.00   0.097   0.279   0.288   0.288   0.289   0.290
 2014 319   192   339    47      0    335   1162     0     0   120    0.00   0.0   0.0   0.00   0.194   0.277   0.286   0.287   0.287   0.289
 2014 320   193   338    46      0    335   1164     0     0   120    0.00   0.0   0.0   0.00   0.216   0.274   0.284   0.284   0.285   0.287
 2014 321   194   337    45      0    335   1166     0     0   120    0.00   0.0   0.0   0.00   0.244   0.272   0.282   0.283   0.283   0.285
 2014 322   195   340    49      0    335   1174     0     0   120    0.00   0.0   0.0   0.00   0.357   0.274   0.279   0.280   0.281   0.283
 2014 323   196   336    45      0    335   1174     0     0   120    0.00   0.0   0.0   0.00   0.312   0.272   0.278   0.279   0.280   0.281
 2014 324   197   333    41      0    335   1174     0     0   120    0.00   0.0   0.0   0.00   0.278   0.270   0.276   0.277   0.278   0.279
 2014 325   198   331    39      0    335   1175     0     0   120    0.00   0.0   0.0   0.00   0.285   0.267   0.274   0.275   0.276   0.278
 2014 326   199   327    36      0    335   1175     0     0   120    0.00   0.0   0.0   0.00   0.261   0.265   0.272   0.274   0.274   0.276
 2014 327   200   327    35      0    335   1178     0     0   120    0.00   0.0   0.0   0.00   0.297   0.262   0.270   0.271   0.272   0.274
 2014 328   201   323    32      0    335   1178     0     0   120    0.00   0.0   0.0   0.00   0.268   0.260   0.268   0.270   0.270   0.272
 2014 329   202   320    29      0    335   1178     0     0   120    0.00   0.0   0.0   0.00   0.248   0.258   0.266   0.268   0.269   0.270
 2014 330   203   321    29      0    335   1181     0     0   120    0.00   0.0   0.0   0.00   0.293   0.256   0.264   0.267   0.267   0.269
 2014 331   204   317    26      0    335   1181     0     0   120    0.00   0.0   0.0   0.00   0.264   0.254   0.263   0.265   0.266   0.267
 2014 332   205   314    22      0    335   1181     0     0   120    0.00   0.0   0.0   0.00   0.244   0.251   0.260   0.263   0.263   0.265
 2014 333   206   310    19      0    335   1181     0     0   120    0.00   0.0   0.0   0.00   0.227   0.249   0.258   0.261   0.261   0.263
 2014 334   207   307    16      0    335   1181     0     0   120    0.00   0.0   0.0   0.00   0.212   0.247   0.256   0.259   0.259   0.261
 2014 335   208   307    16      0    335   1184     0     0   120    0.00   0.0   0.0   0.00   0.244   0.245   0.255   0.257   0.258   0.259
 2014 336   209   304    13      0    335   1184     0     0   120    0.00   0.0   0.0   0.00   0.228   0.243   0.252   0.255   0.256   0.257
 2014 337   210   301    10      0    335   1184     0     0   120    0.00   0.0   0.0   0.00   0.213   0.242   0.251   0.254   0.254   0.256
 2014 338   211   299     7      0    335   1184     0     0   120    0.00   0.0   0.0   0.00   0.199   0.241   0.249   0.252   0.252   0.254
 2014 339   212   297     5      0    335   1184     0     0   120    0.00   0.0   0.0   0.00   0.187   0.240   0.247   0.251   0.251   0.253
 2014 340   213   295     3      0    335   1184     0     0   120    0.00   0.0   0.0   0.00   0.176   0.239   0.246   0.249   0.250   0.251
 2014 341   214   293     1      0    335   1184     0     0   120    0.00   0.0   0.0   0.00   0.166   0.238   0.245   0.248   0.248   0.250
 2014 342   215   291     0      0    335   1184     0     0   120    0.00   0.0   0.0   0.00   0.157   0.237   0.243   0.247   0.247   0.249
 2014 343   216   291     0      0    335   1186     0     0   120    0.00   0.0   0.0   0.00   0.186   0.236   0.243   0.246   0.246   0.248
 2014 344   217   290     0      0    335   1186     0     0   120    0.00   0.0   0.0   0.00   0.175   0.235   0.243   0.245   0.245   0.247
 2014 345   218   288     0      0    335   1186     0     0   120    0.00   0.0   0.0   0.00   0.165   0.233   0.243   0.244   0.244   0.246
 2014 346   219   287     0      0    335   1186     0     0   120    0.00   0.0   0.0   0.00   0.156   0.232   0.242   0.243   0.243   0.245
 2014 347   220   286     0      0    335   1186     0     0   120    0.00   0.0   0.0   0.00   0.148   0.231   0.242   0.243   0.243   0.244
 2014 348   221   285     0      0    335   1186     0     0   120    0.00   0.0   0.0   0.00   0.141   0.230   0.242   0.243   0.243   0.243
 2014 349   222   285     0      0    335   1186     0     0   120    0.00   0.0   0.0   0.00   0.134   0.229   0.242   0.243   0.243   0.243
 2014 350   223   284     0      0    335   1186     0     0   120    0.00   0.0   0.0   0.00   0.128   0.228   0.241   0.243   0.243   0.243
 2014 351   224   284     0      0    335   1186     0     0   120    0.00   0.0   0.0   0.00   0.123   0.227   0.241   0.243   0.243   0.243
 2014 352   225   283     0      0    335   1186     0     0   120    0.00   0.0   0.0   0.00   0.118   0.226   0.241   0.243   0.243   0.243
 2014 353   226   283     0      0    335   1186     0     0   120    0.00   0.0   0.0   0.00   0.114   0.225   0.241   0.243   0.243   0.243
 2014 354   227   283     0      0    335   1186     0     0   120    0.00   0.0   0.0   0.00   0.110   0.224   0.241   0.243   0.243   0.243
 2014 355   228   282     0      0    335   1186     0     0   120    0.00   0.0   0.0   0.00   0.106   0.224   0.240   0.242   0.243   0.243
 2014 356   229   282     0      0    335   1186     0     0   120    0.00   0.0   0.0   0.00   0.103   0.223   0.240   0.242   0.243   0.243
 2014 357   230   282     0      0    335   1186     0     0   120    0.00   0.0   0.0   0.00   0.100   0.222   0.240   0.242   0.243   0.243
 2014 358   231   281     0      0    335   1186     0     0   120    0.00   0.0   0.0   0.00   0.097   0.221   0.240   0.242   0.243   0.243
 2014 359   232   281     0      0    335   1186     0     0   120    0.00   0.0   0.0   0.00   0.095   0.220   0.240   0.242   0.243   0.243
 2014 360   233   281     0      0    335   1186     0     0   120    0.00   0.0   0.0   0.00   0.093   0.219   0.239   0.242   0.243   0.243
 2014 361   234   281     0      0    335   1186     0     0   120    0.00   0.0   0.0   0.00   0.091   0.218   0.239   0.242   0.243   0.243
 2014 362   235   280     0      0    335   1186     0     0   120    0.00   0.0   0.0   0.00   0.089   0.217   0.239   0.242   0.243   0.243
 2014 363   236   280     0      0    335   1186     0     0   120    0.00   0.0   0.0   0.00   0.088   0.216   0.239   0.242   0.243   0.243
