*WATER BALANCE OUTPUT FILE

*DSSAT Cropping System Model Ver. 4.7.2.000 -release      OCT 15, 2021; 17:59:32
                                                                                
*RUN   1        :             CSM335_date_1 MZCER047 ITSA1301    1              
 MODEL          : MZCER047 - Maize                                              
 EXPERIMENT     : ITSA1301 SG CALIBRATION SETUP OF SORGHUM SOWING DATES         
 DATA PATH      :                                                               
 TREATMENT  1   :             CSM335_date_1 MZCER047                            
  

!     WATER BALANCE PARAMETERS
!     ========================                 --mm--

!     Soil H20 (start) on Year/day 2014/128    291.60
!     Soil H20 (final) on Year/day 2014/363    280.04
!     Effective Irrigation                       0.00
!     Precipitation                           1185.80
!     Water added with new mulch                 0.00
!     Drainage                                 334.86
!     Tiledrain flow                             0.00
!     Runoff                                     0.00
!     Mulch evaporation                          0.00
!     Soil Evaporation                         504.42
!     Transpiration                            358.08
!     Potential ET                            1056.42

!     Initial mulch water content                0.00
!     Final mulch water content                  0.00

!     Final Balance                             0.005

