*SOM N DAILY OUTPUT FILE

*DSSAT Cropping System Model Ver. 4.7.2.000 -release      OCT 15, 2021; 17:59:32
                                                                                
*RUN   1        :             CSM335_date_1 MZCER047 ITSA1301    1              
 MODEL          : MZCER047 - Maize                                              
 EXPERIMENT     : ITSA1301 SG CALIBRATION SETUP OF SORGHUM SOWING DATES         
 DATA PATH      :                                                               
 TREATMENT  1   :             CSM335_date_1 MZCER047                            
  
!                                                                                                                                                                                                                                                                                                                                                                                                                                                Cumul.
!               <---- SOM N in top layers ----> <---------------- Total Soil Organic Nitrogen ----------------> <-------- Active Soil Organic Nitrogen (SOM1) --------> <---- Intermediate Soil Organic N (SOM2) -----> <------- Passive Soil Organic N (SOM3) -------> <----------------- Litter Nitrogen -------------------> <------------- Metabolic Litter Nitrogen -------------> <------------ Structural Litter Nitrogen ------------->  Res. N
!               20cm-kg  20cm-% 40cm-kg  40cm-%   Total Surface    Soil     0-5    5-15   15-30   30-60  60-120 Surface    Soil     0-5    5-15   15-30   30-60  60-120    Soil     0-5    5-15   15-30   30-60  60-120    Soil     0-5    5-15   15-30   30-60  60-120 Surface    Soil     0-5    5-15   15-30   30-60  60-120 Surface    Soil     0-5    5-15   15-30   30-60  60-120 Surface    Soil     0-5    5-15   15-30   30-60  60-120 (kg/ha)
@YEAR DOY   DAS  SNS20D  SN%20D  SNS40D  SN%40D    SOND    SN0D    SNTD    SN1D    SN2D    SN3D    SN4D   SN5+D   S1N0D   S1NTD   S1N1D   S1N2D   S1N3D   S1N4D  S1N5+D   S2NTD   S2N1D   S2N2D   S2N3D   S2N4D  S2N5+D   S3NTD   S3N1D   S3N2D   S3N3D   S3N4D  S3N5+D    LN0D    LNTD    LN1D    LN2D    LN3D    LN4D   LN5+D   MEN0D   MENTD   MEN1D   MEN2D   MEN3D   MEN4D  MEN5+D   STN0D   STNTD   STN1D   STN2D   STN3D   STN4D  STN5+D   RESNC
 2014 127     0    4530   0.160    5109   0.180   32397       0   32397    1133    2266    3400    8530   17069       0     271      42      84     126       6      12    3027     470     941    1412      68     135   29095     620    1239    1860    8456   16921    0.00    4.50    0.56    0.93    1.02    1.17    0.81    0.00    4.11    0.51    0.85    0.94    1.07    0.74    0.00    0.39    0.05    0.08    0.09    0.10    0.07       0
 2014 128     1    4530   0.159    5109   0.180   32397       0   32397    1132    2266    3400    8530   17069       0     271      42      84     126       6      12    3026     470     941    1412      68     135   29095     620    1239    1860    8456   16921    0.00    4.48    0.55    0.93    1.02    1.17    0.81    0.00    4.09    0.50    0.85    0.93    1.06    0.74    0.00    0.39    0.05    0.08    0.09    0.10    0.07       0
 2014 129     2    4529   0.159    5109   0.180   32397       0   32397    1132    2266    3400    8530   17069       0     271      42      84     126       6      12    3026     470     941    1412      68     135   29095     620    1239    1860    8456   16921    0.00    4.46    0.53    0.93    1.02    1.16    0.81    0.00    4.06    0.48    0.85    0.93    1.06    0.74    0.00    0.39    0.05    0.08    0.09    0.10    0.07       0
 2014 130     3    4529   0.159    5109   0.180   32396       0   32396    1132    2266    3400    8530   17069       0     271      42      84     126       6      12    3026     470     941    1412      68     135   29095     620    1239    1860    8456   16921    0.00    4.42    0.51    0.93    1.02    1.16    0.81    0.00    4.03    0.46    0.84    0.93    1.06    0.74    0.00    0.39    0.05    0.08    0.09    0.10    0.07       0
 2014 131     4    4529   0.159    5109   0.180   32396       0   32396    1132    2265    3400    8530   17069       0     270      42      84     126       6      12    3026     470     941    1412      67     135   29095     620    1239    1860    8456   16921    0.00    4.37    0.48    0.90    1.02    1.16    0.81    0.00    3.98    0.43    0.82    0.93    1.06    0.74    0.00    0.39    0.05    0.08    0.09    0.10    0.07       0
 2014 132     5    4528   0.159    5109   0.180   32395       0   32395    1131    2265    3400    8530   17069       0     270      42      84     126       6      12    3025     470     941    1412      67     135   29095     620    1239    1860    8456   16921    0.00    4.30    0.46    0.86    1.02    1.16    0.81    0.00    3.91    0.41    0.78    0.93    1.06    0.73    0.00    0.39    0.05    0.08    0.09    0.10    0.07       0
 2014 133     6    4527   0.159    5109   0.180   32394       0   32394    1131    2264    3400    8530   17069       0     270      42      84     126       6      12    3025     470     940    1412      67     135   29095     620    1240    1860    8456   16921    0.00    4.23    0.44    0.82    1.01    1.16    0.80    0.00    3.84    0.39    0.74    0.93    1.05    0.73    0.00    0.39    0.05    0.08    0.09    0.10    0.07       0
 2014 134     7    4526   0.159    5109   0.180   32393       0   32393    1131    2264    3400    8530   17069       0     269      41      83     126       6      12    3024     470     940    1412      67     135   29095     620    1240    1860    8456   16921    0.00    4.17    0.42    0.78    1.01    1.15    0.80    0.00    3.78    0.37    0.70    0.92    1.05    0.73    0.00    0.39    0.05    0.08    0.09    0.10    0.07       0
 2014 135     8    4526   0.159    5109   0.180   32392       0   32392    1131    2263    3399    8530   17069       0     269      41      83     126       6      12    3024     469     940    1412      67     135   29095     620    1240    1860    8456   16921    0.00    4.10    0.40    0.75    1.00    1.15    0.80    0.00    3.71    0.35    0.67    0.91    1.05    0.73    0.00    0.39    0.05    0.08    0.09    0.10    0.07       0
 2014 136     9    4525   0.159    5109   0.180   32391       0   32391    1130    2263    3399    8530   17069       0     269      41      83     126       6      12    3023     469     940    1412      67     135   29096     620    1240    1860    8456   16921    0.00    4.04    0.38    0.71    0.99    1.15    0.80    0.00    3.65    0.33    0.63    0.90    1.05    0.73    0.00    0.39    0.05    0.08    0.09    0.10    0.07       0
 2014 137    10    4524   0.159    5108   0.180   32390       0   32390    1130    2262    3399    8530   17069       0     268      41      83     126       6      12    3023     469     939    1412      67     135   29096     620    1240    1860    8456   16921    0.00    3.96    0.36    0.68    0.97    1.15    0.80    0.00    3.58    0.32    0.60    0.89    1.05    0.73    0.00    0.39    0.05    0.08    0.09    0.10    0.07       0
 2014 138    11    4523   0.159    5108   0.180   32389       0   32389    1130    2262    3398    8530   17069       0     267      41      83     126       6      12    3022     469     939    1411      67     135   29096     620    1240    1860    8456   16921    0.00    3.86    0.34    0.65    0.92    1.15    0.80    0.00    3.47    0.30    0.57    0.84    1.04    0.73    0.00    0.39    0.05    0.08    0.09    0.10    0.07       0
 2014 139    12    4522   0.159    5107   0.180   32387       0   32387    1130    2261    3397    8530   17069       0     267      41      82     125       6      12    3021     469     939    1411      67     135   29096     620    1240    1860    8456   16921    0.00    3.77    0.33    0.62    0.88    1.14    0.80    0.00    3.38    0.28    0.54    0.79    1.04    0.73    0.00    0.39    0.05    0.08    0.09    0.10    0.07       0
 2014 140    13    4521   0.159    5107   0.180   32385       0   32385    1129    2261    3396    8530   17069       0     266      41      82     125       6      12    3020     469     938    1411      67     135   29096     620    1240    1860    8456   16921    0.00    3.68    0.31    0.59    0.84    1.14    0.79    0.00    3.29    0.26    0.51    0.75    1.04    0.72    0.00    0.39    0.05    0.08    0.09    0.10    0.07       0
 2014 141    14    4520   0.159    5106   0.180   32384       0   32384    1129    2260    3396    8530   17069       0     265      41      82     125       6      12    3019     469     938    1410      67     135   29096     620    1240    1860    8456   16921    0.00    3.59    0.30    0.56    0.80    1.14    0.79    0.00    3.21    0.25    0.48    0.71    1.04    0.72    0.00    0.39    0.05    0.08    0.09    0.10    0.07       0
 2014 142    15    4519   0.159    5106   0.180   32383       0   32383    1129    2260    3395    8530   17069       0     265      41      82     124       6      12    3019     468     938    1410      67     135   29096     620    1240    1860    8456   16921    0.00    3.50    0.28    0.54    0.76    1.12    0.79    0.00    3.12    0.24    0.46    0.68    1.02    0.72    0.00    0.39    0.05    0.08    0.09    0.10    0.07       0
 2014 143    16    4518   0.159    5105   0.180   32381       0   32381    1129    2259    3394    8530   17069       0     264      40      82     124       6      12    3018     468     938    1409      67     135   29096     620    1240    1860    8456   16921    0.00    3.41    0.27    0.52    0.73    1.10    0.79    0.00    3.03    0.23    0.44    0.64    1.00    0.72    0.00    0.38    0.05    0.08    0.09    0.10    0.07       0
 2014 144    17    4518   0.159    5105   0.180   32380       0   32380    1128    2259    3394    8530   17069       0     264      40      81     124       6      12    3017     468     937    1409      67     135   29096     620    1240    1860    8455   16921    0.00    3.32    0.26    0.50    0.70    1.07    0.79    0.00    2.93    0.21    0.42    0.62    0.97    0.72    0.00    0.38    0.05    0.08    0.09    0.10    0.07       0
 2014 145    18    4517   0.159    5105   0.180   32379       0   32379    1128    2259    3393    8530   17069       0     263      40      81     124       6      12    3016     468     937    1409      67     135   29096     620    1240    1860    8455   16921    0.00    3.23    0.25    0.48    0.68    1.03    0.79    0.00    2.84    0.20    0.40    0.59    0.93    0.72    0.00    0.38    0.05    0.08    0.09    0.10    0.07       0
 2014 146    19    4516   0.159    5104   0.180   32377       0   32377    1128    2258    3392    8530   17069       0     263      40      81     123       6      12    3016     468     937    1408      67     135   29096     620    1240    1860    8455   16921    0.00    3.13    0.24    0.46    0.65    1.00    0.79    0.00    2.75    0.20    0.38    0.56    0.90    0.72    0.00    0.38    0.05    0.08    0.09    0.10    0.07       0
 2014 147    20    4515   0.159    5104   0.180   32376       0   32376    1128    2258    3392    8530   17069       0     262      40      81     123       6      12    3015     468     937    1408      67     135   29096     620    1240    1860    8455   16921    0.00    3.04    0.23    0.44    0.63    0.95    0.79    0.00    2.66    0.19    0.37    0.54    0.85    0.72    0.00    0.38    0.05    0.08    0.09    0.10    0.07       0
 2014 148    21    4515   0.159    5103   0.180   32375       0   32375    1128    2257    3391    8530   17069       0     262      40      81     123       6      12    3014     468     937    1408      67     135   29095     620    1240    1860    8455   16921    0.00    2.96    0.22    0.43    0.60    0.91    0.78    0.00    2.58    0.18    0.35    0.52    0.81    0.71    0.00    0.38    0.05    0.08    0.09    0.10    0.07       0
 2014 149    22    4514   0.159    5103   0.180   32374       0   32374    1127    2257    3391    8530   17069       0     261      40      80     123       6      12    3014     468     936    1407      67     135   29095     620    1240    1860    8455   16921    0.00    2.87    0.22    0.41    0.58    0.87    0.78    0.00    2.49    0.17    0.33    0.49    0.77    0.71    0.00    0.38    0.05    0.08    0.09    0.10    0.07       0
 2014 150    23    4513   0.159    5103   0.180   32372       0   32372    1127    2257    3390    8530   17069       0     261      40      80     122       6      12    3013     467     936    1407      67     135   29095     620    1240    1860    8455   16921    0.00    2.77    0.21    0.39    0.55    0.83    0.78    0.00    2.39    0.16    0.32    0.47    0.74    0.71    0.00    0.38    0.05    0.08    0.09    0.10    0.07       0
 2014 151    24    4512   0.159    5102   0.180   32371       0   32371    1127    2256    3390    8529   17069       0     260      40      80     122       7      12    3012     467     936    1407      67     135   29095     620    1240    1860    8455   16921    0.00    2.68    0.20    0.38    0.53    0.79    0.78    0.00    2.30    0.15    0.30    0.45    0.70    0.71    0.00    0.38    0.05    0.08    0.09    0.10    0.07       0
 2014 152    25    4511   0.159    5102   0.180   32369       0   32369    1127    2256    3389    8529   17069       0     260      40      80     122       7      12    3012     467     936    1406      67     135   29095     620    1240    1860    8455   16921    0.00    2.59    0.19    0.36    0.50    0.75    0.78    0.00    2.21    0.15    0.29    0.42    0.66    0.70    0.00    0.38    0.05    0.08    0.09    0.10    0.07       0
 2014 153    26    4511   0.159    5101   0.180   32368       0   32368    1126    2255    3388    8529   17069       0     259      39      80     121       7      12    3011     467     935    1406      67     135   29095     620    1240    1860    8455   16921    0.00    2.50    0.18    0.35    0.48    0.72    0.77    0.00    2.12    0.14    0.27    0.40    0.62    0.70    0.00    0.37    0.05    0.08    0.08    0.10    0.07       0
 2014 154    27    4510   0.159    5101   0.180   32366       0   32366    1126    2255    3388    8529   17068       0     259      39      79     121       7      12    3010     467     935    1406      67     135   29095     620    1240    1860    8455   16921    0.00    2.41    0.17    0.33    0.46    0.68    0.77    0.00    2.04    0.13    0.25    0.37    0.59    0.70    0.00    0.37    0.05    0.08    0.08    0.10    0.07       0
 2014 155    28    4509   0.159    5100   0.180   32365       0   32365    1126    2255    3387    8529   17068       0     258      39      79     121       7      12    3010     467     935    1405      67     135   29095     620    1240    1861    8454   16921    0.00    2.33    0.17    0.32    0.44    0.65    0.76    0.00    1.96    0.12    0.24    0.35    0.55    0.69    0.00    0.37    0.04    0.08    0.08    0.10    0.07       0
 2014 156    29    4508   0.159    5100   0.180   32364       0   32364    1126    2254    3386    8529   17068       0     258      39      79     120       7      12    3009     467     935    1405      67     135   29095     620    1240    1861    8454   16921    0.00    2.26    0.16    0.30    0.42    0.62    0.76    0.00    1.89    0.12    0.23    0.33    0.52    0.69    0.00    0.37    0.04    0.08    0.08    0.10    0.07       0
 2014 157    30    4507   0.159    5100   0.180   32362       0   32362    1126    2254    3386    8529   17068       0     257      39      79     120       7      12    3008     467     935    1405      67     135   29095     620    1240    1861    8454   16920    0.00    2.19    0.16    0.29    0.40    0.59    0.76    0.00    1.82    0.11    0.21    0.31    0.49    0.69    0.00    0.37    0.04    0.07    0.08    0.10    0.07       0
 2014 158    31    4507   0.159    5099   0.180   32361       0   32361    1126    2253    3385    8529   17068       0     256      39      79     120       7      12    3008     467     934    1404      67     135   29095     620    1240    1861    8454   16920    0.00    2.12    0.15    0.28    0.38    0.56    0.75    0.00    1.75    0.11    0.20    0.29    0.46    0.68    0.00    0.37    0.04    0.07    0.08    0.10    0.07       0
 2014 159    32    4506   0.159    5099   0.180   32360       0   32360    1125    2253    3384    8529   17068       0     256      39      78     120       7      12    3007     467     934    1404      67     135   29095     620    1240    1861    8454   16920    0.00    2.05    0.14    0.26    0.36    0.53    0.75    0.00    1.68    0.10    0.19    0.28    0.44    0.68    0.00    0.37    0.04    0.07    0.08    0.10    0.07       0
 2014 160    33    4505   0.159    5098   0.180   32358       0   32358    1125    2252    3384    8528   17068       0     255      39      78     119       7      12    3006     466     934    1404      67     135   29095     620    1240    1861    8454   16920    0.00    1.99    0.14    0.25    0.34    0.51    0.75    0.00    1.62    0.09    0.18    0.26    0.41    0.68    0.00    0.37    0.04    0.07    0.08    0.10    0.07       0
 2014 161    34    4504   0.159    5098   0.180   32357       0   32357    1125    2252    3383    8528   17068       0     255      39      78     119       7      12    3006     466     934    1403      67     135   29095     620    1240    1861    8454   16920    0.00    1.93    0.13    0.24    0.33    0.49    0.74    0.00    1.57    0.09    0.17    0.25    0.39    0.67    0.00    0.37    0.04    0.07    0.08    0.10    0.07       0
 2014 162    35    4504   0.159    5098   0.179   32356       0   32356    1125    2252    3383    8528   17068       0     254      39      78     119       7      12    3005     466     934    1403      67     135   29095     620    1240    1861    8454   16920    0.00    1.88    0.13    0.23    0.32    0.46    0.74    0.00    1.51    0.08    0.16    0.23    0.37    0.67    0.00    0.37    0.04    0.07    0.08    0.10    0.07       0
 2014 163    36    4503   0.159    5097   0.179   32355       0   32355    1125    2251    3382    8528   17068       0     254      39      78     119       7      12    3004     466     933    1403      67     135   29095     620    1240    1861    8454   16920    0.00    1.83    0.12    0.23    0.30    0.44    0.73    0.00    1.46    0.08    0.15    0.22    0.35    0.66    0.00    0.36    0.04    0.07    0.08    0.10    0.07       0
 2014 164    37    4503   0.159    5097   0.179   32354       0   32354    1125    2251    3382    8528   17068       0     254      39      78     118       7      12    3004     466     933    1402      67     135   29094     620    1240    1861    8453   16920    0.00    1.77    0.12    0.22    0.29    0.43    0.72    0.00    1.41    0.08    0.14    0.21    0.33    0.65    0.00    0.36    0.04    0.07    0.08    0.09    0.07       0
 2014 165    38    4502   0.159    5097   0.179   32353       0   32353    1125    2251    3381    8528   17068       0     254      39      77     118       7      12    3003     466     933    1402      67     135   29094     620    1240    1861    8453   16920    0.00    1.72    0.11    0.21    0.28    0.41    0.70    0.00    1.36    0.07    0.14    0.20    0.31    0.63    0.00    0.36    0.04    0.07    0.08    0.09    0.07       0
 2014 166    39    4502   0.159    5096   0.179   32352       0   32352    1125    2250    3381    8528   17068       0     253      39      77     118       7      12    3003     466     933    1402      67     135   29094     620    1240    1861    8453   16920    0.00    1.67    0.11    0.20    0.27    0.39    0.69    0.00    1.31    0.07    0.13    0.19    0.30    0.62    0.00    0.36    0.04    0.07    0.08    0.09    0.07       0
 2014 167    40    4501   0.158    5096   0.179   32351       0   32351    1125    2250    3380    8528   17068       0     253      39      77     118       7      12    3002     466     933    1402      67     135   29094     620    1240    1861    8453   16920    0.00    1.61    0.11    0.20    0.26    0.37    0.67    0.00    1.25    0.06    0.12    0.18    0.28    0.60    0.00    0.36    0.04    0.07    0.08    0.09    0.07       0
 2014 168    41    4501   0.158    5095   0.179   32350       0   32350    1125    2250    3380    8528   17068       0     253      39      77     117       7      12    3001     466     932    1401      67     135   29094     620    1240    1861    8453   16920    0.00    1.56    0.10    0.19    0.25    0.36    0.66    0.00    1.20    0.06    0.12    0.17    0.27    0.59    0.00    0.36    0.04    0.07    0.08    0.09    0.07       0
 2014 169    42    4500   0.158    5095   0.179   32349       0   32349    1125    2249    3379    8527   17068       0     252      39      77     117       7      12    3001     466     932    1401      67     135   29094     620    1240    1861    8453   16920    0.00    1.51    0.10    0.18    0.24    0.34    0.64    0.00    1.15    0.06    0.11    0.16    0.25    0.57    0.00    0.36    0.04    0.07    0.08    0.09    0.07       0
 2014 170    43    4499   0.158    5095   0.179   32347       0   32347    1125    2249    3379    8527   17068       0     252      39      77     117       7      12    3000     465     932    1401      67     135   29094     620    1240    1861    8453   16920    0.00    1.46    0.10    0.18    0.23    0.33    0.63    0.00    1.11    0.05    0.10    0.15    0.24    0.56    0.00    0.36    0.04    0.07    0.08    0.09    0.07       0
 2014 171    44    4499   0.158    5094   0.179   32346       0   32346    1125    2249    3378    8527   17068       0     252      39      76     117       7      12    2999     465     932    1400      67     135   29094     620    1240    1861    8453   16920    0.00    1.42    0.09    0.17    0.22    0.32    0.61    0.00    1.06    0.05    0.10    0.14    0.22    0.55    0.00    0.36    0.04    0.07    0.08    0.09    0.07       0
 2014 172    45    4498   0.158    5094   0.179   32345       0   32345    1125    2248    3378    8527   17068       0     252      39      76     116       7      12    2999     465     932    1400      67     135   29094     620    1240    1861    8453   16920    0.00    1.38    0.09    0.16    0.22    0.30    0.60    0.00    1.02    0.05    0.09    0.14    0.21    0.53    0.00    0.35    0.04    0.07    0.08    0.09    0.07       0
 2014 173    46    4498   0.158    5094   0.179   32344       0   32344    1125    2248    3377    8527   17067       0     251      39      76     116       7      12    2998     465     931    1400      67     135   29093     620    1240    1861    8452   16920    0.00    1.34    0.09    0.16    0.21    0.29    0.59    0.00    0.98    0.05    0.09    0.13    0.20    0.52    0.00    0.35    0.04    0.07    0.08    0.09    0.07       0
 2014 174    47    4497   0.158    5093   0.179   32343       0   32343    1124    2248    3377    8527   17067       0     251      39      76     116       7      12    2997     465     931    1399      67     135   29093     620    1240    1861    8452   16920    0.00    1.30    0.09    0.15    0.20    0.28    0.58    0.00    0.95    0.04    0.08    0.12    0.19    0.51    0.00    0.35    0.04    0.07    0.08    0.09    0.07       0
 2014 175    48    4497   0.158    5093   0.179   32342       0   32342    1124    2247    3376    8527   17067       0     251      39      76     116       7      12    2997     465     931    1399      67     135   29093     620    1240    1861    8452   16919    0.00    1.26    0.08    0.15    0.19    0.27    0.57    0.00    0.91    0.04    0.08    0.12    0.18    0.50    0.00    0.35    0.04    0.07    0.08    0.09    0.07       0
 2014 176    49    4496   0.158    5093   0.179   32341       0   32341    1124    2247    3376    8527   17067       0     251      39      76     116       7      12    2996     465     931    1399      67     135   29093     620    1240    1861    8452   16919    0.00    1.23    0.08    0.15    0.19    0.26    0.55    0.00    0.88    0.04    0.08    0.11    0.17    0.48    0.00    0.35    0.04    0.07    0.08    0.09    0.07       0
 2014 177    50    4496   0.158    5092   0.179   32340       0   32340    1124    2247    3376    8527   17067       0     251      39      76     116       7      12    2996     465     931    1399      67     135   29093     620    1240    1861    8452   16919    0.00    1.19    0.08    0.14    0.18    0.25    0.54    0.00    0.84    0.04    0.07    0.10    0.16    0.47    0.00    0.35    0.04    0.07    0.08    0.09    0.07       0
 2014 178    51    4495   0.158    5092   0.179   32339       0   32339    1124    2247    3375    8526   17067       0     250      39      76     116       7      13    2995     465     930    1398      67     135   29093     620    1240    1861    8452   16919    0.00    1.16    0.08    0.14    0.18    0.24    0.53    0.00    0.81    0.04    0.07    0.10    0.15    0.46    0.00    0.35    0.04    0.07    0.08    0.09    0.07       0
 2014 179    52    4495   0.158    5092   0.179   32338       0   32338    1124    2247    3375    8526   17067       0     250      39      76     116       7      13    2994     465     930    1398      67     135   29093     620    1240    1861    8452   16919    0.00    1.13    0.08    0.14    0.17    0.23    0.52    0.00    0.78    0.03    0.07    0.09    0.14    0.45    0.00    0.35    0.04    0.07    0.08    0.09    0.07       0
 2014 180    53    4495   0.158    5092   0.179   32337       0   32337    1124    2246    3375    8526   17067       0     250      39      76     115       7      13    2994     464     930    1398      67     135   29092     620    1240    1861    8452   16919    0.00    1.10    0.07    0.13    0.17    0.23    0.50    0.00    0.76    0.03    0.06    0.09    0.14    0.44    0.00    0.35    0.04    0.07    0.08    0.09    0.07       0
 2014 181    54    4494   0.158    5091   0.179   32337       0   32337    1123    2246    3374    8526   17067       0     250      39      76     115       7      13    2993     464     930    1397      67     135   29092     620    1240    1861    8452   16919    0.00    1.08    0.07    0.13    0.16    0.22    0.49    0.00    0.73    0.03    0.06    0.09    0.13    0.42    0.00    0.35    0.04    0.07    0.08    0.09    0.07       0
 2014 182    55    4494   0.158    5091   0.179   32336       0   32336    1123    2246    3374    8526   17067       0     250      39      76     115       7      13    2993     464     930    1397      67     135   29092     620    1240    1861    8452   16919    0.00    1.05    0.07    0.13    0.16    0.21    0.48    0.00    0.70    0.03    0.06    0.08    0.12    0.41    0.00    0.34    0.04    0.07    0.08    0.09    0.07       0
 2014 183    56    4493   0.158    5091   0.179   32335       0   32335    1123    2246    3374    8526   17066       0     250      39      75     115       7      13    2992     464     930    1397      67     135   29092     620    1240    1861    8451   16919    0.00    1.02    0.07    0.12    0.16    0.20    0.47    0.00    0.68    0.03    0.06    0.08    0.12    0.40    0.00    0.34    0.04    0.07    0.08    0.09    0.07       0
 2014 184    57    4493   0.158    5091   0.179   32334       0   32334    1123    2245    3373    8526   17066       0     249      39      75     115       7      13    2991     464     929    1397      67     135   29092     620    1240    1861    8451   16919    0.00    1.00    0.07    0.12    0.15    0.20    0.46    0.00    0.66    0.03    0.05    0.08    0.11    0.39    0.00    0.34    0.04    0.07    0.08    0.09    0.07       0
 2014 185    58    4492   0.158    5090   0.179   32333       0   32333    1123    2245    3373    8526   17066       0     249      39      75     115       8      13    2991     464     929    1396      67     135   29092     620    1241    1861    8451   16918    0.00    0.98    0.07    0.12    0.15    0.19    0.45    0.00    0.64    0.03    0.05    0.07    0.10    0.38    0.00    0.34    0.04    0.07    0.08    0.09    0.07       0
 2014 186    59    4492   0.158    5090   0.179   32332       0   32332    1123    2245    3373    8526   17066       0     249      39      75     115       8      13    2990     464     929    1396      67     135   29092     620    1241    1861    8451   16918    0.00    0.96    0.07    0.12    0.15    0.19    0.44    0.00    0.62    0.03    0.05    0.07    0.10    0.37    0.00    0.34    0.04    0.07    0.08    0.09    0.07       0
 2014 187    60    4491   0.158    5090   0.179   32331       0   32331    1123    2245    3372    8526   17066       0     249      39      75     115       8      13    2990     464     929    1396      67     135   29091     620    1241    1862    8451   16918    0.00    0.94    0.07    0.12    0.14    0.18    0.43    0.00    0.60    0.03    0.05    0.07    0.09    0.36    0.00    0.34    0.04    0.07    0.08    0.09    0.07       0
 2014 188    61    4490   0.158    5090   0.179   32330       0   32330    1122    2244    3372    8526   17066       0     249      39      75     115       8      13    2989     464     929    1395      67     135   29091     620    1241    1862    8451   16918    0.00    0.92    0.07    0.12    0.14    0.18    0.42    0.00    0.58    0.03    0.05    0.07    0.09    0.36    0.00    0.34    0.04    0.07    0.08    0.09    0.07       0
 2014 189    62    4490   0.158    5090   0.179   32329       0   32329    1122    2244    3372    8525   17066       0     249      38      75     115       8      13    2989     464     928    1395      67     135   29091     620    1241    1862    8451   16918    0.00    0.90    0.07    0.11    0.14    0.17    0.41    0.00    0.57    0.02    0.05    0.06    0.09    0.34    0.00    0.34    0.04    0.07    0.08    0.09    0.07       0
 2014 190    63    4489   0.158    5089   0.179   32328       0   32328    1122    2244    3371    8525   17066       0     248      38      75     115       8      13    2988     463     928    1395      67     135   29091     620    1241    1862    8451   16918    0.00    0.88    0.06    0.11    0.14    0.17    0.40    0.00    0.54    0.02    0.05    0.06    0.08    0.33    0.00    0.34    0.04    0.07    0.08    0.09    0.07       0
 2014 191    64    4489   0.158    5089   0.179   32327       0   32327    1122    2243    3371    8525   17065       0     248      38      75     115       8      13    2987     463     928    1395      67     134   29091     620    1241    1862    8451   16918    0.00    0.86    0.06    0.11    0.14    0.17    0.38    0.00    0.52    0.02    0.04    0.06    0.08    0.31    0.00    0.34    0.04    0.07    0.08    0.09    0.07       0
 2014 192    65    4488   0.158    5089   0.179   32326       0   32326    1122    2243    3371    8525   17065       0     248      38      74     115       8      13    2987     463     928    1394      67     134   29090     620    1241    1862    8451   16917    0.00    0.84    0.06    0.11    0.13    0.16    0.36    0.00    0.50    0.02    0.04    0.06    0.08    0.30    0.00    0.34    0.04    0.07    0.08    0.09    0.07       0
 2014 193    66    4488   0.158    5089   0.179   32325       0   32325    1122    2243    3370    8525   17065       0     248      38      74     114       8      13    2986     463     928    1394      67     134   29090     620    1241    1862    8450   16917    0.00    0.82    0.06    0.11    0.13    0.16    0.35    0.00    0.48    0.02    0.04    0.06    0.07    0.28    0.00    0.34    0.04    0.07    0.08    0.09    0.07       0
 2014 194    67    4487   0.158    5088   0.179   32324       0   32324    1121    2243    3370    8525   17065       0     247      38      74     114       8      13    2986     463     928    1394      67     134   29090     620    1241    1862    8450   16917    0.00    0.80    0.06    0.11    0.13    0.16    0.33    0.00    0.46    0.02    0.04    0.06    0.07    0.27    0.00    0.33    0.04    0.07    0.07    0.09    0.07       0
 2014 195    68    4486   0.158    5088   0.179   32322       0   32322    1121    2242    3370    8525   17065       0     247      38      74     114       8      13    2985     463     927    1394      67     134   29090     620    1241    1862    8450   16917    0.00    0.78    0.06    0.11    0.13    0.16    0.32    0.00    0.44    0.02    0.04    0.06    0.07    0.25    0.00    0.33    0.04    0.07    0.07    0.09    0.07       0
 2014 196    69    4486   0.158    5088   0.179   32321       0   32321    1121    2242    3369    8525   17064       0     247      38      74     114       8      13    2984     463     927    1393      67     134   29089     620    1241    1862    8450   16917    0.00    0.76    0.06    0.11    0.13    0.15    0.30    0.00    0.43    0.02    0.04    0.05    0.07    0.24    0.00    0.33    0.04    0.07    0.07    0.09    0.07       0
 2014 197    70    4485   0.158    5087   0.179   32320       0   32320    1121    2242    3369    8525   17064       0     246      38      74     114       8      13    2984     463     927    1393      67     134   29089     620    1241    1862    8450   16916    0.00    0.74    0.06    0.11    0.13    0.15    0.29    0.00    0.41    0.02    0.04    0.05    0.07    0.23    0.00    0.33    0.04    0.07    0.07    0.09    0.07       0
 2014 198    71    4484   0.158    5087   0.179   32319       0   32319    1121    2241    3368    8525   17064       0     246      38      74     114       8      13    2983     463     927    1393      67     134   29089     620    1241    1862    8450   16916    0.00    0.73    0.06    0.11    0.13    0.15    0.28    0.00    0.40    0.02    0.04    0.05    0.07    0.22    0.00    0.33    0.04    0.07    0.07    0.09    0.07       0
 2014 199    72    4484   0.158    5087   0.179   32318       0   32318    1120    2241    3368    8525   17064       0     246      38      74     114       8      13    2983     463     927    1392      67     134   29089     620    1241    1862    8450   16916    0.00    0.72    0.06    0.11    0.13    0.15    0.27    0.00    0.39    0.02    0.04    0.05    0.07    0.20    0.00    0.33    0.04    0.07    0.07    0.09    0.06       0
 2014 200    73    4483   0.158    5087   0.179   32317       0   32317    1120    2241    3368    8525   17063       0     246      37      73     113       8      13    2982     463     926    1392      67     134   29088     620    1241    1862    8450   16916    0.00    0.71    0.06    0.11    0.13    0.15    0.26    0.00    0.38    0.02    0.04    0.05    0.07    0.19    0.00    0.33    0.04    0.07    0.07    0.09    0.06       0
 2014 201    74    4483   0.158    5086   0.179   32316       0   32316    1120    2240    3367    8525   17063       0     245      37      73     113       8      13    2981     462     926    1392      67     134   29088     620    1241    1862    8450   16916    0.00    0.70    0.06    0.11    0.13    0.15    0.25    0.00    0.37    0.02    0.04    0.05    0.07    0.19    0.00    0.33    0.04    0.07    0.07    0.09    0.06       0
 2014 202    75    4482   0.158    5086   0.179   32315       0   32315    1120    2240    3367    8525   17063       0     245      37      73     113       8      13    2981     462     926    1392      67     134   29088     620    1241    1862    8450   16915    0.00    0.69    0.06    0.11    0.13    0.15    0.24    0.00    0.36    0.02    0.04    0.06    0.07    0.18    0.00    0.33    0.04    0.07    0.07    0.09    0.06       0
 2014 203    76    4481   0.158    5086   0.179   32313       0   32313    1120    2240    3366    8524   17063       0     245      37      73     113       8      13    2980     462     926    1391      67     134   29088     620    1241    1862    8450   16915    0.00    0.69    0.06    0.11    0.13    0.15    0.24    0.00    0.36    0.02    0.04    0.06    0.07    0.17    0.00    0.33    0.04    0.07    0.07    0.09    0.06       0
 2014 204    77    4481   0.158    5085   0.179   32312       0   32312    1120    2239    3366    8524   17063       0     244      37      73     113       8      13    2980     462     926    1391      67     134   29088     620    1241    1862    8449   16915    0.00    0.69    0.06    0.11    0.13    0.15    0.23    0.00    0.36    0.02    0.04    0.06    0.07    0.16    0.00    0.33    0.04    0.07    0.07    0.09    0.06       0
 2014 205    78    4480   0.158    5085   0.179   32311       0   32311    1119    2239    3366    8524   17063       0     244      37      73     113       8      13    2979     462     925    1391      67     134   29087     620    1241    1862    8449   16915    0.00    0.68    0.06    0.11    0.13    0.16    0.22    0.00    0.35    0.02    0.04    0.06    0.07    0.16    0.00    0.33    0.04    0.07    0.07    0.09    0.06       0
 2014 206    79    4480   0.158    5085   0.179   32310       0   32310    1119    2239    3365    8524   17062       0     244      37      73     113       8      13    2979     462     925    1390      67     134   29087     620    1241    1862    8449   16915    0.00    0.68    0.06    0.11    0.13    0.16    0.22    0.00    0.35    0.02    0.04    0.06    0.07    0.15    0.00    0.33    0.04    0.07    0.07    0.09    0.06       0
 2014 207    80    4479   0.158    5084   0.179   32309       0   32309    1119    2239    3365    8524   17062       0     243      37      72     112       8      14    2978     462     925    1390      67     134   29087     620    1241    1862    8449   16914    0.00    0.68    0.06    0.11    0.13    0.16    0.21    0.00    0.35    0.02    0.04    0.06    0.07    0.15    0.00    0.33    0.04    0.07    0.07    0.09    0.06       0
 2014 208    81    4478   0.158    5084   0.179   32308       0   32308    1119    2238    3364    8524   17062       0     243      37      72     112       8      14    2977     462     925    1390      67     134   29087     620    1241    1862    8449   16914    0.00    0.68    0.06    0.11    0.13    0.16    0.21    0.00    0.35    0.03    0.04    0.06    0.08    0.14    0.00    0.33    0.04    0.07    0.07    0.09    0.06       0
 2014 209    82    4478   0.158    5084   0.179   32307       0   32307    1119    2238    3364    8524   17062       0     243      37      72     112       8      14    2977     462     925    1390      67     134   29086     620    1241    1862    8449   16914    0.00    0.68    0.07    0.11    0.14    0.16    0.20    0.00    0.35    0.03    0.05    0.06    0.08    0.14    0.00    0.33    0.04    0.07    0.07    0.09    0.06       0
 2014 210    83    4478   0.158    5084   0.179   32306       0   32306    1119    2238    3364    8524   17062       0     243      37      72     112       8      14    2976     462     925    1389      67     134   29086     620    1241    1862    8449   16914    0.00    0.68    0.07    0.11    0.14    0.17    0.20    0.00    0.35    0.03    0.05    0.06    0.08    0.14    0.00    0.33    0.04    0.07    0.07    0.09    0.06       0
 2014 211    84    4477   0.158    5083   0.179   32305       0   32305    1119    2237    3363    8524   17061       0     243      37      72     112       8      14    2976     462     924    1389      67     134   29086     620    1241    1862    8449   16914    0.00    0.69    0.07    0.11    0.14    0.17    0.20    0.00    0.36    0.03    0.05    0.07    0.08    0.13    0.00    0.33    0.04    0.07    0.07    0.09    0.06       0
 2014 212    85    4477   0.158    5083   0.179   32304       0   32304    1119    2237    3363    8524   17061       0     242      37      72     112       8      14    2975     461     924    1389      67     134   29086     620    1241    1862    8449   16913    0.00    0.69    0.07    0.11    0.14    0.17    0.20    0.00    0.36    0.03    0.05    0.07    0.09    0.13    0.00    0.33    0.04    0.07    0.07    0.09    0.06       0
 2014 213    86    4476   0.158    5083   0.179   32303       0   32303    1119    2237    3362    8524   17061       0     242      37      72     112       8      14    2975     461     924    1389      67     134   29085     620    1241    1862    8449   16913    0.00    0.70    0.07    0.12    0.14    0.17    0.20    0.00    0.37    0.03    0.05    0.07    0.09    0.13    0.00    0.33    0.04    0.07    0.07    0.09    0.06       0
 2014 214    87    4476   0.158    5082   0.179   32302       0   32302    1119    2237    3362    8524   17061       0     242      37      72     111       8      14    2974     461     924    1388      67     134   29085     620    1241    1862    8448   16913    0.00    0.70    0.07    0.12    0.15    0.18    0.19    0.00    0.37    0.03    0.05    0.07    0.09    0.13    0.00    0.33    0.04    0.07    0.07    0.09    0.06       0
 2014 215    88    4475   0.158    5082   0.179   32301       0   32301    1118    2236    3362    8524   17061       0     242      37      71     111       8      14    2974     461     924    1388      67     134   29085     620    1241    1862    8448   16913    0.00    0.71    0.07    0.12    0.15    0.18    0.19    0.00    0.38    0.03    0.05    0.07    0.09    0.13    0.00    0.33    0.04    0.07    0.07    0.09    0.06       0
 2014 216    89    4475   0.158    5082   0.179   32300       0   32300    1118    2236    3361    8524   17061       0     242      37      71     111       8      14    2973     461     924    1388      67     134   29085     620    1241    1862    8448   16913    0.00    0.72    0.07    0.12    0.15    0.18    0.19    0.00    0.39    0.03    0.05    0.07    0.10    0.13    0.00    0.33    0.04    0.07    0.07    0.09    0.06       0
 2014 217    90    4474   0.158    5082   0.179   32299       0   32299    1118    2236    3361    8524   17060       0     241      37      71     111       8      14    2972     461     923    1387      67     134   29084     620    1241    1862    8448   16913    0.00    0.73    0.07    0.12    0.15    0.19    0.20    0.00    0.40    0.03    0.05    0.08    0.10    0.13    0.00    0.33    0.04    0.07    0.07    0.09    0.06       0
 2014 218    91    4474   0.158    5081   0.179   32298       0   32298    1118    2236    3361    8523   17060       0     241      37      71     111       8      14    2972     461     923    1387      67     134   29084     620    1241    1862    8448   16912    0.00    0.74    0.07    0.12    0.15    0.19    0.20    0.00    0.41    0.03    0.06    0.08    0.11    0.13    0.00    0.33    0.04    0.07    0.07    0.09    0.07       0
 2014 219    92    4473   0.158    5081   0.179   32297       0   32297    1118    2235    3360    8523   17060       0     241      37      71     111       8      14    2971     461     923    1387      67     134   29084     620    1241    1862    8448   16912    0.00    0.75    0.07    0.12    0.16    0.20    0.20    0.00    0.42    0.03    0.06    0.08    0.11    0.13    0.00    0.33    0.04    0.07    0.07    0.09    0.07       0
 2014 220    93    4473   0.157    5081   0.179   32296       0   32296    1118    2235    3360    8523   17060       0     241      37      71     111       8      14    2971     461     923    1387      67     134   29084     620    1241    1862    8448   16912    0.00    0.76    0.07    0.13    0.16    0.20    0.20    0.00    0.43    0.04    0.06    0.08    0.11    0.14    0.00    0.33    0.04    0.07    0.08    0.09    0.07       0
 2014 221    94    4472   0.157    5081   0.179   32295       0   32295    1118    2235    3359    8523   17060       0     241      37      71     110       9      14    2970     461     923    1386      67     134   29084     620    1241    1862    8448   16912    0.00    0.78    0.08    0.13    0.16    0.21    0.21    0.00    0.45    0.04    0.06    0.09    0.12    0.14    0.00    0.34    0.04    0.07    0.08    0.09    0.07       0
 2014 222    95    4472   0.157    5080   0.179   32294       0   32294    1118    2235    3359    8523   17060       0     240      37      71     110       9      14    2970     461     922    1386      67     134   29083     620    1241    1862    8448   16912    0.00    0.80    0.08    0.13    0.17    0.21    0.21    0.00    0.46    0.04    0.06    0.09    0.12    0.14    0.00    0.34    0.04    0.07    0.08    0.09    0.07       0
 2014 223    96    4471   0.157    5080   0.179   32293       0   32293    1118    2234    3359    8523   17059       0     240      37      71     110       9      14    2969     461     922    1386      67     134   29083     620    1241    1862    8448   16911    0.00    0.81    0.08    0.13    0.17    0.22    0.22    0.00    0.47    0.04    0.06    0.09    0.13    0.15    0.00    0.34    0.04    0.07    0.08    0.09    0.07       0
 2014 224    97    4471   0.157    5080   0.179   32292       0   32292    1117    2234    3358    8523   17059       0     240      37      71     110       9      14    2969     460     922    1386      67     134   29083     620    1241    1862    8448   16911    0.00    0.83    0.08    0.13    0.17    0.22    0.22    0.00    0.49    0.04    0.07    0.10    0.13    0.15    0.00    0.34    0.04    0.07    0.08    0.09    0.07       0
 2014 225    98    4470   0.157    5080   0.179   32291       0   32291    1117    2234    3358    8523   17059       0     240      36      70     110       9      14    2968     460     922    1385      67     134   29083     620    1241    1863    8448   16911    0.00    0.85    0.08    0.14    0.18    0.23    0.23    0.00    0.51    0.04    0.07    0.10    0.14    0.16    0.00    0.34    0.04    0.07    0.08    0.09    0.07       0
 2014 226    99    4470   0.157    5079   0.179   32290       0   32290    1117    2234    3358    8523   17059       0     240      36      70     110       9      14    2968     460     922    1385      67     134   29082     620    1241    1863    8447   16911    0.00    0.87    0.08    0.14    0.18    0.24    0.24    0.00    0.53    0.04    0.07    0.10    0.15    0.17    0.00    0.34    0.04    0.07    0.08    0.09    0.07       0
 2014 227   100    4469   0.157    5079   0.179   32289       0   32289    1117    2233    3357    8523   17059       0     239      36      70     110       9      14    2967     460     922    1385      67     134   29082     620    1241    1863    8447   16911    0.00    0.90    0.09    0.14    0.18    0.24    0.24    0.00    0.56    0.05    0.07    0.11    0.15    0.17    0.00    0.34    0.04    0.07    0.08    0.09    0.07       0
 2014 228   101    4469   0.157    5079   0.179   32289       0   32289    1117    2233    3357    8523   17059       0     239      36      70     110       9      14    2967     460     921    1385      67     134   29082     620    1241    1863    8447   16910    0.00    0.93    0.09    0.14    0.19    0.25    0.25    0.00    0.58    0.05    0.08    0.11    0.16    0.18    0.00    0.35    0.04    0.07    0.08    0.09    0.07       0
 2014 229   102    4468   0.157    5079   0.179   32288       0   32288    1117    2233    3357    8523   17059       0     239      36      70     110       9      14    2966     460     921    1384      67     134   29082     620    1241    1863    8447   16910    0.00    0.96    0.09    0.15    0.20    0.26    0.26    0.00    0.61    0.05    0.08    0.12    0.17    0.19    0.00    0.35    0.04    0.07    0.08    0.09    0.07       0
 2014 230   103    4468   0.157    5078   0.179   32287       0   32287    1117    2232    3356    8523   17058       0     239      36      70     109       9      14    2965     460     921    1384      67     134   29082     620    1241    1863    8447   16910    0.00    0.99    0.09    0.15    0.20    0.27    0.28    0.00    0.64    0.05    0.08    0.12    0.18    0.20    0.00    0.35    0.04    0.07    0.08    0.09    0.07       0
 2014 231   104    4467   0.157    5078   0.179   32286       0   32286    1117    2232    3356    8523   17058       0     238      36      70     109       9      14    2965     460     921    1384      67     134   29081     620    1241    1863    8447   16910    0.00    1.02    0.09    0.15    0.21    0.28    0.29    0.00    0.66    0.05    0.09    0.13    0.18    0.21    0.00    0.35    0.04    0.07    0.08    0.09    0.07       0
 2014 232   105    4467   0.157    5078   0.179   32285       0   32285    1116    2232    3356    8523   17058       0     238      36      70     109       9      14    2964     460     921    1384      67     134   29081     620    1241    1863    8447   16910    0.00    1.05    0.10    0.16    0.21    0.29    0.30    0.00    0.69    0.06    0.09    0.13    0.19    0.22    0.00    0.35    0.04    0.07    0.08    0.09    0.07       0
 2014 233   106    4466   0.157    5077   0.179   32284       0   32284    1116    2232    3355    8523   17058       0     238      36      70     109       9      15    2964     460     921    1383      67     134   29081     620    1241    1863    8447   16910    0.00    1.07    0.10    0.16    0.22    0.29    0.31    0.00    0.72    0.06    0.09    0.14    0.20    0.23    0.00    0.36    0.04    0.07    0.08    0.09    0.07       0
 2014 234   107    4466   0.157    5077   0.179   32283       0   32283    1116    2231    3355    8523   17058       0     238      36      69     109       9      15    2963     460     920    1383      67     134   29081     620    1241    1863    8447   16909    0.00    1.10    0.10    0.16    0.22    0.30    0.32    0.00    0.74    0.06    0.10    0.14    0.21    0.24    0.00    0.36    0.04    0.07    0.08    0.09    0.08       0
 2014 235   108    4465   0.157    5077   0.179   32282       0   32282    1116    2231    3355    8522   17058       0     237      36      69     109       9      15    2963     460     920    1383      67     133   29080     620    1241    1863    8447   16909    0.00    1.13    0.10    0.17    0.23    0.31    0.33    0.00    0.77    0.06    0.10    0.15    0.21    0.25    0.00    0.36    0.04    0.07    0.08    0.10    0.08       0
 2014 236   109    4465   0.157    5077   0.179   32281       0   32281    1116    2231    3354    8522   17058       0     237      36      69     109       9      15    2962     459     920    1383      67     133   29080     620    1241    1863    8447   16909    0.00    1.16    0.10    0.17    0.23    0.32    0.34    0.00    0.80    0.06    0.10    0.15    0.22    0.26    0.00    0.36    0.04    0.07    0.08    0.10    0.08       0
 2014 237   110    4464   0.157    5076   0.179   32280       0   32280    1116    2231    3354    8522   17057       0     237      36      69     108       9      15    2962     459     920    1382      67     133   29080     620    1241    1863    8446   16909    0.00    1.19    0.11    0.17    0.24    0.33    0.35    0.00    0.82    0.06    0.10    0.15    0.23    0.27    0.00    0.37    0.04    0.07    0.08    0.10    0.08       0
 2014 238   111    4463   0.157    5076   0.179   32279       0   32279    1116    2230    3353    8522   17057       0     237      36      69     108       9      15    2961     459     920    1382      67     133   29080     621    1241    1863    8446   16909    0.00    1.22    0.11    0.18    0.24    0.33    0.36    0.00    0.85    0.07    0.11    0.16    0.24    0.28    0.00    0.37    0.04    0.07    0.08    0.10    0.08       0
 2014 239   112    4463   0.157    5076   0.179   32278       0   32278    1116    2230    3353    8522   17057       0     236      36      69     108       9      15    2961     459     920    1382      67     133   29080     621    1241    1863    8446   16909    0.00    1.26    0.11    0.18    0.25    0.35    0.38    0.00    0.89    0.07    0.11    0.17    0.25    0.30    0.00    0.37    0.04    0.07    0.08    0.10    0.08       0
 2014 240   113    4462   0.157    5076   0.179   32277       0   32277    1115    2230    3353    8522   17057       0     236      36      69     108       9      15    2960     459     919    1382      67     133   29079     621    1241    1863    8446   16908    0.00    1.29    0.11    0.18    0.25    0.35    0.39    0.00    0.92    0.07    0.11    0.17    0.25    0.31    0.00    0.38    0.04    0.07    0.08    0.10    0.08       0
 2014 241   114    4462   0.157    5075   0.179   32276       0   32276    1115    2229    3352    8522   17057       0     236      36      69     108       9      15    2960     459     919    1381      67     133   29079     621    1241    1863    8446   16908    0.00    1.33    0.12    0.19    0.26    0.36    0.40    0.00    0.95    0.07    0.12    0.17    0.26    0.32    0.00    0.38    0.04    0.07    0.08    0.10    0.08       0
 2014 242   115    4461   0.157    5075   0.179   32275       0   32275    1115    2229    3352    8522   17057       0     236      35      69     108       9      15    2959     459     919    1381      67     133   29079     621    1241    1863    8446   16908    0.00    1.37    0.12    0.19    0.26    0.37    0.42    0.00    0.98    0.08    0.12    0.18    0.27    0.34    0.00    0.38    0.04    0.07    0.08    0.10    0.09       0
 2014 243   116    4460   0.157    5075   0.179   32274       0   32274    1115    2229    3351    8522   17056       0     235      35      68     107       9      15    2958     459     919    1381      67     133   29079     621    1241    1863    8446   16908    0.00    1.40    0.12    0.19    0.27    0.38    0.44    0.00    1.02    0.08    0.12    0.19    0.28    0.35    0.00    0.39    0.04    0.07    0.08    0.10    0.09       0
 2014 244   117    4460   0.157    5074   0.179   32272       0   32272    1115    2228    3351    8522   17056       0     235      35      68     107       9      15    2958     459     918    1380      67     133   29078     621    1241    1863    8446   16908    0.00    1.44    0.12    0.20    0.28    0.39    0.45    0.00    1.05    0.08    0.13    0.19    0.29    0.36    0.00    0.39    0.04    0.07    0.08    0.10    0.09       0
 2014 245   118    4459   0.157    5074   0.179   32271       0   32271    1115    2228    3350    8522   17056       0     235      35      68     107       9      15    2957     459     918    1380      67     133   29078     621    1241    1863    8446   16907    0.00    1.48    0.12    0.20    0.28    0.40    0.47    0.00    1.08    0.08    0.13    0.20    0.30    0.38    0.00    0.39    0.04    0.07    0.08    0.10    0.09       0
 2014 246   119    4459   0.157    5074   0.179   32270       0   32270    1115    2228    3350    8522   17056       0     234      35      68     107       9      15    2956     459     918    1380      67     133   29078     621    1241    1863    8446   16907    0.00    1.52    0.13    0.20    0.29    0.41    0.49    0.00    1.12    0.08    0.13    0.20    0.31    0.39    0.00    0.40    0.04    0.07    0.09    0.11    0.09       0
 2014 247   120    4458   0.157    5073   0.179   32269       0   32269    1114    2228    3350    8522   17056       0     234      35      68     107       9      15    2956     459     918    1379      67     133   29078     621    1241    1863    8446   16907    0.00    1.55    0.13    0.21    0.29    0.42    0.50    0.00    1.15    0.09    0.13    0.21    0.31    0.41    0.00    0.40    0.04    0.07    0.09    0.11    0.09       0
 2014 248   121    4457   0.157    5073   0.179   32268       0   32268    1114    2227    3349    8522   17056       0     234      35      68     107       9      15    2955     458     918    1379      67     133   29077     621    1242    1863    8445   16907    0.00    1.59    0.13    0.21    0.30    0.43    0.52    0.00    1.19    0.09    0.14    0.21    0.32    0.42    0.00    0.41    0.04    0.07    0.09    0.11    0.10       0
 2014 249   122    4457   0.157    5073   0.179   32267       0   32267    1114    2227    3349    8522   17056       0     233      35      68     106       9      15    2955     458     917    1379      67     133   29077     621    1242    1863    8445   16907    0.00    1.63    0.13    0.21    0.31    0.44    0.54    0.00    1.22    0.09    0.14    0.22    0.33    0.44    0.00    0.41    0.04    0.07    0.09    0.11    0.10       0
 2014 250   123    4456   0.157    5072   0.179   32266       0   32266    1114    2227    3348    8521   17055       0     233      35      68     106       9      15    2954     458     917    1379      67     133   29077     621    1242    1863    8445   16906    0.00    1.68    0.14    0.22    0.31    0.45    0.56    0.00    1.26    0.09    0.14    0.22    0.34    0.46    0.00    0.41    0.04    0.07    0.09    0.11    0.10       0
 2014 251   124    4456   0.157    5072   0.179   32264       0   32264    1114    2226    3348    8521   17055       0     233      35      68     106       9      15    2953     458     917    1378      67     133   29077     621    1242    1863    8445   16906    0.00    1.72    0.14    0.22    0.32    0.46    0.58    0.00    1.30    0.09    0.15    0.23    0.35    0.47    0.00    0.42    0.04    0.07    0.09    0.11    0.10       0
 2014 252   125    4455   0.157    5072   0.179   32263       0   32263    1114    2226    3347    8521   17055       0     233      35      67     106       9      15    2953     458     917    1378      67     133   29076     621    1242    1863    8445   16906    0.00    1.75    0.14    0.22    0.32    0.47    0.59    0.00    1.33    0.10    0.15    0.24    0.36    0.49    0.00    0.42    0.04    0.07    0.09    0.11    0.10       0
 2014 253   126    4454   0.157    5071   0.179   32262       0   32262    1114    2226    3347    8521   17055       0     232      35      67     106       9      15    2952     458     917    1378      67     133   29076     621    1242    1863    8445   16906    0.00    1.80    0.14    0.23    0.33    0.48    0.61    0.00    1.37    0.10    0.15    0.24    0.37    0.51    0.00    0.43    0.04    0.07    0.09    0.11    0.11       0
 2014 254   127    4454   0.157    5071   0.179   32261       0   32261    1113    2225    3346    8521   17055       0     232      35      67     106       9      15    2951     458     916    1377      67     133   29076     621    1242    1863    8445   16906    0.00    1.84    0.14    0.23    0.34    0.49    0.63    0.00    1.40    0.10    0.16    0.25    0.38    0.52    0.00    0.43    0.04    0.07    0.09    0.11    0.11       0
 2014 255   128    4453   0.157    5071   0.179   32260       0   32260    1113    2225    3346    8521   17055       0     232      35      67     105       9      15    2951     458     916    1377      67     133   29076     621    1242    1863    8445   16905    0.00    1.88    0.14    0.24    0.34    0.50    0.65    0.00    1.44    0.10    0.16    0.25    0.39    0.54    0.00    0.44    0.05    0.07    0.09    0.12    0.11       0
 2014 256   129    4453   0.157    5070   0.179   32259       0   32259    1113    2225    3346    8521   17054       0     231      35      67     105       9      15    2950     458     916    1377      67     133   29075     621    1242    1863    8445   16905    0.00    1.93    0.15    0.24    0.35    0.52    0.67    0.00    1.49    0.10    0.17    0.26    0.40    0.56    0.00    0.44    0.05    0.08    0.09    0.12    0.11       0
 2014 257   130    4452   0.157    5070   0.179   32258       0   32258    1113    2224    3345    8521   17054       0     231      35      67     105       9      15    2950     458     916    1376      67     133   29075     621    1242    1863    8445   16905    0.00    1.99    0.15    0.25    0.36    0.53    0.70    0.00    1.54    0.10    0.17    0.27    0.41    0.58    0.00    0.45    0.05    0.08    0.09    0.12    0.12       0
 2014 258   131    4451   0.157    5070   0.179   32257       0   32257    1113    2224    3345    8521   17054       0     231      34      67     105       9      16    2949     458     916    1376      67     133   29075     621    1242    1863    8445   16905    0.00    2.04    0.15    0.25    0.36    0.55    0.72    0.00    1.58    0.10    0.17    0.27    0.43    0.61    0.00    0.45    0.05    0.08    0.09    0.12    0.12       0
 2014 259   132    4451   0.157    5069   0.178   32256       0   32256    1113    2224    3344    8521   17054       0     231      34      67     105       9      16    2948     457     915    1376      67     133   29075     621    1242    1863    8445   16905    0.00    2.09    0.15    0.26    0.37    0.56    0.75    0.00    1.63    0.11    0.18    0.28    0.44    0.63    0.00    0.46    0.05    0.08    0.09    0.12    0.12       0
 2014 260   133    4450   0.157    5069   0.178   32254       0   32254    1113    2224    3344    8521   17054       0     230      34      67     105       9      16    2947     457     915    1376      67     133   29074     621    1242    1863    8444   16905    0.00    2.14    0.15    0.26    0.38    0.57    0.78    0.00    1.68    0.11    0.18    0.28    0.45    0.66    0.00    0.47    0.05    0.08    0.10    0.12    0.12       0
 2014 261   134    4449   0.157    5069   0.178   32253       0   32253    1112    2223    3343    8521   17054       0     230      34      66     104       9      16    2947     457     915    1375      67     133   29074     621    1242    1863    8444   16904    0.00    2.19    0.16    0.26    0.38    0.59    0.81    0.00    1.72    0.11    0.19    0.29    0.46    0.68    0.00    0.47    0.05    0.08    0.10    0.13    0.13       0
 2014 262   135    4449   0.157    5068   0.178   32252       0   32252    1112    2223    3343    8521   17054       0     230      34      66     104       9      16    2946     457     915    1375      67     133   29074     621    1242    1863    8444   16904    0.00    2.25    0.16    0.27    0.39    0.60    0.83    0.00    1.77    0.11    0.19    0.29    0.47    0.70    0.00    0.48    0.05    0.08    0.10    0.13    0.13       0
 2014 263   136    4448   0.157    5068   0.178   32251       0   32251    1112    2223    3342    8521   17053       0     230      34      66     104       9      16    2945     457     914    1375      67     133   29074     621    1242    1863    8444   16904    0.00    2.30    0.16    0.27    0.39    0.61    0.86    0.00    1.81    0.11    0.19    0.29    0.49    0.73    0.00    0.48    0.05    0.08    0.10    0.13    0.13       0
 2014 264   137    4447   0.157    5067   0.178   32250       0   32250    1112    2222    3342    8521   17053       0     229      34      66     104       9      16    2945     457     914    1374      67     133   29073     621    1242    1863    8444   16904    0.00    2.34    0.16    0.27    0.39    0.62    0.89    0.00    1.85    0.11    0.19    0.30    0.49    0.76    0.00    0.49    0.05    0.08    0.10    0.13    0.14       0
 2014 265   138    4447   0.157    5067   0.178   32248       0   32248    1112    2222    3341    8520   17053       0     229      34      66     104       9      16    2944     457     914    1374      66     133   29073     621    1242    1863    8444   16903    0.00    2.24    0.15    0.26    0.38    0.60    0.85    0.00    1.75    0.11    0.18    0.28    0.47    0.71    0.00    0.49    0.05    0.08    0.10    0.13    0.14       0
 2014 266   139    4446   0.157    5067   0.178   32247       0   32247    1112    2221    3341    8520   17053       0     229      34      66     103       9      16    2943     457     914    1373      66     133   29073     621    1242    1863    8444   16903    0.00    2.14    0.15    0.25    0.36    0.57    0.81    0.00    1.66    0.10    0.18    0.27    0.44    0.67    0.00    0.49    0.05    0.08    0.10    0.13    0.14       0
 2014 267   140    4445   0.157    5066   0.178   32245       0   32245    1111    2221    3340    8520   17053       0     228      34      66     103       9      16    2942     457     913    1373      66     133   29073     621    1242    1863    8444   16903    0.00    2.05    0.14    0.25    0.35    0.54    0.77    0.00    1.57    0.10    0.17    0.25    0.42    0.63    0.00    0.49    0.05    0.08    0.10    0.13    0.13       0
 2014 268   141    4445   0.156    5066   0.178   32244       0   32244    1111    2221    3340    8520   17052       0     228      34      66     103       9      16    2941     456     913    1373      66     133   29072     621    1242    1863    8444   16903    0.00    1.97    0.14    0.24    0.34    0.52    0.73    0.00    1.48    0.09    0.16    0.24    0.39    0.60    0.00    0.48    0.05    0.08    0.10    0.13    0.13       0
 2014 269   142    4444   0.156    5066   0.178   32242       0   32242    1111    2220    3339    8520   17052       0     228      34      65     103       9      16    2941     456     913    1372      66     133   29072     621    1242    1863    8443   16903    0.00    1.89    0.14    0.23    0.33    0.50    0.70    0.00    1.41    0.09    0.15    0.23    0.37    0.56    0.00    0.48    0.05    0.08    0.10    0.13    0.13       0
 2014 270   143    4443   0.156    5065   0.178   32241       0   32241    1111    2220    3338    8520   17052       0     227      34      65     103       9      16    2940     456     913    1372      66     133   29072     621    1242    1864    8443   16902    0.00    1.81    0.13    0.22    0.31    0.48    0.67    0.00    1.33    0.09    0.14    0.22    0.35    0.53    0.00    0.48    0.05    0.08    0.10    0.13    0.13       0
 2014 271   144    4442   0.156    5065   0.178   32239       0   32239    1111    2220    3338    8520   17052       0     227      34      65     103       9      16    2939     456     912    1372      66     133   29071     621    1242    1864    8443   16902    0.00    1.73    0.13    0.21    0.30    0.46    0.63    0.00    1.26    0.08    0.14    0.21    0.33    0.50    0.00    0.48    0.05    0.08    0.10    0.13    0.13       0
 2014 272   145    4442   0.156    5064   0.178   32238       0   32238    1110    2219    3337    8520   17051       0     227      34      65     102       9      16    2938     456     912    1371      66     133   29071     621    1242    1864    8443   16902    0.00    1.66    0.12    0.21    0.29    0.44    0.61    0.00    1.19    0.08    0.13    0.19    0.31    0.47    0.00    0.48    0.05    0.08    0.10    0.13    0.13       0
 2014 273   146    4441   0.156    5064   0.178   32237       0   32237    1110    2219    3337    8519   17051       0     226      33      65     102      10      16    2938     456     912    1371      66     133   29071     621    1242    1864    8443   16902    0.00    1.60    0.12    0.20    0.28    0.42    0.58    0.00    1.12    0.07    0.12    0.18    0.30    0.45    0.00    0.47    0.05    0.08    0.09    0.13    0.13       0
 2014 274   147    4440   0.156    5064   0.178   32235       0   32235    1110    2219    3336    8519   17051       0     226      33      65     102      10      16    2937     456     912    1370      66     133   29071     621    1242    1864    8443   16901    0.00    1.54    0.12    0.19    0.27    0.40    0.56    0.00    1.06    0.07    0.12    0.17    0.28    0.42    0.00    0.47    0.05    0.08    0.09    0.13    0.13       0
 2014 275   148    4440   0.156    5063   0.178   32234       0   32234    1110    2218    3336    8519   17051       0     226      33      65     102      10      16    2936     456     911    1370      66     133   29070     621    1242    1864    8443   16901    0.00    1.48    0.11    0.19    0.26    0.39    0.53    0.00    1.01    0.07    0.11    0.16    0.26    0.40    0.00    0.47    0.05    0.08    0.09    0.12    0.13       0
 2014 276   149    4439   0.156    5063   0.178   32233       0   32233    1110    2218    3335    8519   17050       0     225      33      65     102      10      16    2936     456     911    1370      66     133   29070     621    1242    1864    8443   16901    0.00    1.42    0.11    0.18    0.25    0.37    0.51    0.00    0.95    0.06    0.11    0.16    0.25    0.38    0.00    0.47    0.05    0.08    0.09    0.12    0.13       0
 2014 277   150    4439   0.156    5063   0.178   32231       0   32231    1110    2218    3335    8519   17050       0     225      33      65     102      10      16    2935     455     911    1369      66     133   29070     621    1242    1864    8443   16901    0.00    1.37    0.11    0.18    0.24    0.36    0.49    0.00    0.90    0.06    0.10    0.15    0.23    0.36    0.00    0.47    0.05    0.08    0.09    0.12    0.13       0
 2014 278   151    4438   0.156    5062   0.178   32230       0   32230    1109    2217    3335    8519   17050       0     225      33      64     101      10      16    2934     455     911    1369      66     133   29070     621    1242    1864    8443   16901    0.00    1.32    0.10    0.17    0.23    0.35    0.47    0.00    0.86    0.06    0.10    0.14    0.22    0.34    0.00    0.47    0.05    0.08    0.09    0.12    0.13       0
 2014 279   152    4437   0.156    5062   0.178   32229       0   32229    1109    2217    3334    8519   17050       0     225      33      64     101      10      16    2934     455     911    1369      66     133   29069     621    1242    1864    8442   16900    0.00    1.28    0.10    0.17    0.23    0.34    0.45    0.00    0.82    0.06    0.09    0.13    0.21    0.32    0.00    0.46    0.04    0.08    0.09    0.12    0.13       0
 2014 280   153    4437   0.156    5062   0.178   32228       0   32228    1109    2217    3334    8519   17050       0     224      33      64     101      10      16    2933     455     910    1369      66     133   29069     621    1242    1864    8442   16900    0.00    1.24    0.10    0.16    0.22    0.33    0.43    0.00    0.78    0.05    0.09    0.13    0.20    0.31    0.00    0.46    0.04    0.08    0.09    0.12    0.13       0
 2014 281   154    4436   0.156    5061   0.178   32227       0   32227    1109    2216    3333    8518   17049       0     224      33      64     101      10      16    2932     455     910    1368      66     133   29069     621    1242    1864    8442   16900    0.00    1.20    0.10    0.16    0.22    0.31    0.42    0.00    0.74    0.05    0.08    0.12    0.19    0.29    0.00    0.46    0.04    0.07    0.09    0.12    0.13       0
 2014 282   155    4436   0.156    5061   0.178   32226       0   32226    1109    2216    3333    8518   17049       0     224      33      64     101      10      16    2932     455     910    1368      66     133   29069     621    1242    1864    8442   16900    0.00    1.17    0.09    0.16    0.21    0.31    0.40    0.00    0.71    0.05    0.08    0.12    0.18    0.28    0.00    0.46    0.04    0.07    0.09    0.12    0.13       0
 2014 283   156    4435   0.156    5061   0.178   32224       0   32224    1109    2216    3333    8518   17049       0     224      33      64     101      10      16    2931     455     910    1368      66     132   29068     621    1242    1864    8442   16900    0.00    1.13    0.09    0.15    0.20    0.30    0.39    0.00    0.67    0.05    0.08    0.11    0.17    0.26    0.00    0.46    0.04    0.07    0.09    0.12    0.13       0
 2014 284   157    4435   0.156    5061   0.178   32223       0   32223    1109    2216    3332    8518   17049       0     223      33      64     101      10      16    2931     455     910    1367      66     132   29068     621    1242    1864    8442   16899    0.00    1.10    0.09    0.15    0.20    0.29    0.37    0.00    0.64    0.05    0.07    0.11    0.17    0.25    0.00    0.46    0.04    0.07    0.09    0.12    0.13       0
 2014 285   158    4434   0.156    5060   0.178   32222       0   32222    1108    2215    3332    8518   17049       0     223      33      64     100      10      17    2930     455     909    1367      66     132   29068     621    1242    1864    8442   16899    0.00    1.20    0.09    0.16    0.21    0.31    0.43    0.00    0.74    0.05    0.08    0.12    0.19    0.30    0.00    0.46    0.04    0.07    0.09    0.12    0.13       0
 2014 286   159    4433   0.156    5060   0.178   32221       0   32221    1108    2215    3331    8518   17048       0     223      33      64     100      10      17    2929     455     909    1367      66     132   29068     621    1242    1864    8442   16899    0.00    1.30    0.10    0.16    0.22    0.34    0.48    0.00    0.83    0.05    0.09    0.13    0.22    0.35    0.00    0.47    0.04    0.08    0.09    0.12    0.13       0
 2014 287   160    4432   0.156    5059   0.178   32220       0   32220    1108    2215    3331    8518   17048       0     222      33      64     100      10      17    2928     454     909    1366      66     132   29067     621    1242    1864    8442   16899    0.00    1.40    0.10    0.17    0.23    0.37    0.53    0.00    0.92    0.06    0.10    0.14    0.24    0.39    0.00    0.48    0.04    0.08    0.09    0.13    0.14       0
 2014 288   161    4432   0.156    5059   0.178   32218       0   32218    1108    2214    3330    8518   17048       0     222      33      63     100      10      17    2928     454     909    1366      66     132   29067     621    1242    1864    8442   16899    0.00    1.50    0.10    0.18    0.25    0.39    0.58    0.00    1.01    0.06    0.10    0.15    0.26    0.44    0.00    0.48    0.05    0.08    0.09    0.13    0.14       0
 2014 289   162    4431   0.156    5059   0.178   32217       0   32217    1108    2214    3330    8518   17048       0     222      32      63     100      10      17    2927     454     908    1366      66     132   29067     621    1242    1864    8441   16898    0.00    1.59    0.11    0.19    0.26    0.41    0.63    0.00    1.10    0.06    0.11    0.16    0.28    0.48    0.00    0.49    0.05    0.08    0.10    0.13    0.14       0
 2014 290   163    4431   0.156    5058   0.178   32216       0   32216    1108    2214    3329    8518   17048       0     222      32      63     100      10      17    2926     454     908    1365      66     132   29067     621    1242    1864    8441   16898    0.00    1.68    0.11    0.19    0.27    0.44    0.67    0.00    1.18    0.07    0.12    0.17    0.30    0.52    0.00    0.50    0.05    0.08    0.10    0.13    0.15       0
 2014 291   164    4430   0.156    5058   0.178   32215       0   32215    1107    2213    3329    8518   17048       0     221      32      63      99      10      17    2926     454     908    1365      66     132   29066     621    1242    1864    8441   16898    0.00    1.76    0.12    0.20    0.28    0.46    0.71    0.00    1.26    0.07    0.12    0.18    0.32    0.56    0.00    0.50    0.05    0.08    0.10    0.13    0.15       0
 2014 292   165    4430   0.156    5058   0.178   32214       0   32214    1107    2213    3328    8518   17048       0     221      32      63      99      10      17    2925     454     908    1365      66     132   29066     621    1242    1864    8441   16898    0.00    1.85    0.12    0.21    0.29    0.48    0.76    0.00    1.34    0.07    0.13    0.19    0.34    0.60    0.00    0.51    0.05    0.08    0.10    0.13    0.15       0
 2014 293   166    4429   0.156    5058   0.178   32213       0   32213    1107    2213    3328    8518   17047       0     221      32      63      99      10      17    2925     454     908    1364      66     132   29066     621    1242    1864    8441   16898    0.00    1.93    0.12    0.21    0.30    0.50    0.80    0.00    1.41    0.08    0.13    0.20    0.36    0.64    0.00    0.52    0.05    0.08    0.10    0.14    0.16       0
 2014 294   167    4428   0.156    5057   0.178   32212       0   32212    1107    2213    3328    8517   17047       0     221      32      63      99      10      17    2924     454     907    1364      66     132   29066     621    1242    1864    8441   16897    0.00    2.00    0.13    0.22    0.30    0.52    0.84    0.00    1.48    0.08    0.14    0.20    0.38    0.68    0.00    0.53    0.05    0.08    0.10    0.14    0.16       0
 2014 295   168    4428   0.156    5057   0.178   32211       0   32211    1107    2212    3327    8517   17047       0     220      32      63      99      10      17    2923     454     907    1364      66     132   29065     621    1242    1864    8441   16897    0.00    2.08    0.13    0.22    0.31    0.54    0.88    0.00    1.55    0.08    0.14    0.21    0.40    0.71    0.00    0.53    0.05    0.08    0.10    0.14    0.17       0
 2014 296   169    4427   0.156    5057   0.178   32210       0   32210    1107    2212    3327    8517   17047       0     220      32      63      99      10      17    2922     454     907    1363      66     132   29065     621    1242    1864    8441   16897    0.00    2.15    0.13    0.23    0.32    0.56    0.92    0.00    1.61    0.08    0.15    0.22    0.42    0.75    0.00    0.54    0.05    0.08    0.10    0.14    0.17       0
 2014 297   170    4426   0.156    5056   0.178   32209       0   32209    1107    2212    3326    8517   17047       0     220      32      63      99      10      17    2922     453     907    1363      66     132   29065     621    1242    1864    8441   16897    0.00    2.23    0.13    0.23    0.33    0.58    0.96    0.00    1.68    0.09    0.15    0.22    0.44    0.78    0.00    0.55    0.05    0.08    0.10    0.14    0.17       0
 2014 298   171    4426   0.156    5056   0.178   32208       0   32208    1107    2211    3326    8517   17047       0     220      32      62      99      10      17    2921     453     906    1363      66     132   29065     621    1242    1864    8441   16897    0.00    2.30    0.14    0.24    0.33    0.60    0.99    0.00    1.75    0.09    0.16    0.23    0.45    0.82    0.00    0.55    0.05    0.08    0.10    0.15    0.18       0
 2014 299   172    4425   0.156    5056   0.178   32207       0   32207    1106    2211    3325    8517   17047       0     219      32      62      98      10      17    2920     453     906    1362      66     132   29065     621    1242    1864    8441   16897    0.00    2.37    0.14    0.24    0.34    0.62    1.03    0.00    1.81    0.09    0.16    0.24    0.47    0.85    0.00    0.56    0.05    0.08    0.10    0.15    0.18       0
 2014 300   173    4425   0.156    5055   0.178   32206       0   32206    1106    2211    3325    8517   17047       0     219      32      62      98      10      17    2920     453     906    1362      66     132   29064     621    1242    1864    8440   16896    0.00    2.45    0.14    0.25    0.35    0.64    1.07    0.00    1.88    0.10    0.16    0.25    0.49    0.89    0.00    0.57    0.05    0.08    0.10    0.15    0.18       0
 2014 301   174    4424   0.156    5055   0.178   32205       0   32205    1106    2210    3325    8517   17047       0     219      32      62      98      10      17    2919     453     906    1362      66     132   29064     621    1242    1864    8440   16896    0.00    2.53    0.15    0.25    0.36    0.66    1.11    0.00    1.95    0.10    0.17    0.25    0.51    0.92    0.00    0.57    0.05    0.08    0.10    0.15    0.19       0
 2014 302   175    4424   0.156    5055   0.178   32204       0   32204    1106    2210    3324    8517   17046       0     219      32      62      98      10      17    2919     453     906    1362      66     132   29064     621    1242    1864    8440   16896    0.00    2.61    0.15    0.26    0.37    0.68    1.15    0.00    2.02    0.11    0.17    0.26    0.53    0.96    0.00    0.58    0.05    0.08    0.11    0.15    0.19       0
[...]
 2014 319   192    4420   0.156    5052   0.178   32194       0   32194    1106    2208    3320    8516   17045       0     217      32      61      97      10      18    2913     453     904    1358      66     132   29062     621    1242    1865    8439   16894    0.00    2.37    0.18    0.24    0.32    0.61    1.02    0.00    1.76    0.13    0.15    0.22    0.45    0.81    0.00    0.61    0.05    0.08    0.11    0.16    0.21       0
 2014 320   193    4420   0.156    5051   0.178   32194       0   32194    1106    2207    3320    8516   17045       0     217      32      61      97      10      18    2913     453     903    1358      66     132   29061     621    1242    1865    8439   16894    0.00    2.34    0.18    0.24    0.32    0.60    1.00    0.00    1.73    0.13    0.15    0.21    0.44    0.80    0.00    0.61    0.05    0.08    0.11    0.16    0.21       0
 2014 321   194    4419   0.156    5051   0.178   32194       0   32194    1106    2207    3320    8516   17045       0     217      32      61      97      10      18    2913     453     903    1358      66     132   29061     621    1242    1865    8439   16894    0.00    2.30    0.18    0.23    0.31    0.59    0.99    0.00    1.70    0.13    0.15    0.21    0.43    0.78    0.00    0.60    0.05    0.08    0.11    0.16    0.21       0
 2014 322   195    4419   0.156    5051   0.178   32193       0   32193    1106    2207    3319    8516   17044       0     217      32      61      97      10      18    2912     453     903    1358      66     132   29061     621    1242    1865    8439   16894    0.00    2.27    0.17    0.23    0.31    0.58    0.97    0.00    1.67    0.12    0.15    0.20    0.43    0.77    0.00    0.60    0.05    0.08    0.11    0.16    0.21       0
 2014 323   196    4419   0.156    5051   0.178   32193       0   32193    1106    2207    3319    8516   17044       0     217      32      61      97      10      18    2912     453     903    1358      66     132   29061     621    1242    1865    8439   16894    0.00    2.24    0.17    0.23    0.31    0.58    0.96    0.00    1.64    0.12    0.15    0.20    0.42    0.75    0.00    0.60    0.05    0.08    0.11    0.16    0.21       0
 2014 324   197    4419   0.156    5051   0.178   32192       0   32192    1106    2207    3319    8516   17044       0     217      32      61      97      10      18    2912     453     903    1358      66     132   29061     621    1242    1865    8439   16894    0.00    2.21    0.16    0.23    0.30    0.57    0.94    0.00    1.61    0.11    0.14    0.20    0.41    0.74    0.00    0.60    0.05    0.08    0.11    0.16    0.20       0
 2014 325   198    4418   0.156    5051   0.178   32192       0   32192    1106    2207    3319    8516   17044       0     217      32      61      97      10      18    2912     453     903    1358      66     132   29061     621    1242    1865    8439   16894    0.00    2.18    0.16    0.23    0.30    0.56    0.93    0.00    1.58    0.11    0.14    0.19    0.41    0.73    0.00    0.60    0.05    0.08    0.11    0.16    0.20       0
 2014 326   199    4418   0.156    5051   0.178   32191       0   32191    1105    2207    3319    8516   17044       0     217      32      61      96      10      18    2911     453     903    1357      66     132   29061     621    1242    1865    8439   16894    0.00    2.15    0.16    0.22    0.30    0.56    0.92    0.00    1.55    0.11    0.14    0.19    0.40    0.72    0.00    0.60    0.05    0.08    0.11    0.16    0.20       0
 2014 327   200    4418   0.156    5051   0.178   32191       0   32191    1105    2207    3319    8516   17044       0     217      32      61      96      10      18    2911     453     903    1357      66     132   29061     621    1242    1865    8439   16894    0.00    2.13    0.15    0.22    0.30    0.55    0.91    0.00    1.53    0.10    0.14    0.19    0.39    0.71    0.00    0.60    0.05    0.08    0.11    0.16    0.20       0
 2014 328   201    4418   0.156    5051   0.178   32191       0   32191    1105    2207    3319    8516   17044       0     217      32      61      96      10      18    2911     453     903    1357      66     132   29061     621    1242    1865    8439   16894    0.00    2.11    0.15    0.22    0.29    0.55    0.90    0.00    1.51    0.10    0.14    0.19    0.39    0.70    0.00    0.60    0.05    0.08    0.11    0.16    0.20       0
 2014 329   202    4418   0.156    5051   0.178   32190       0   32190    1105    2207    3319    8516   17044       0     217      32      61      96      10      18    2911     452     903    1357      66     132   29061     621    1242    1865    8439   16894    0.00    2.09    0.15    0.22    0.29    0.54    0.89    0.00    1.49    0.10    0.14    0.19    0.38    0.69    0.00    0.60    0.05    0.08    0.11    0.16    0.20       0
 2014 330   203    4418   0.156    5051   0.178   32190       0   32190    1105    2207    3318    8516   17044       0     217      32      61      96      10      18    2911     452     903    1357      66     132   29061     621    1242    1865    8439   16893    0.00    2.07    0.14    0.22    0.29    0.54    0.88    0.00    1.47    0.09    0.14    0.18    0.38    0.68    0.00    0.60    0.05    0.08    0.11    0.16    0.20       0
 2014 331   204    4417   0.156    5050   0.178   32190       0   32190    1105    2207    3318    8516   17044       0     217      32      61      96      10      18    2911     452     903    1357      66     132   29061     621    1242    1865    8439   16893    0.00    2.05    0.14    0.22    0.29    0.53    0.87    0.00    1.46    0.09    0.14    0.18    0.38    0.67    0.00    0.60    0.05    0.08    0.11    0.16    0.20       0
 2014 332   205    4417   0.156    5050   0.178   32190       0   32190    1105    2207    3318    8516   17044       0     217      32      61      96      10      18    2910     452     903    1357      66     132   29061     621    1242    1865    8439   16893    0.00    2.04    0.14    0.22    0.29    0.53    0.87    0.00    1.44    0.09    0.13    0.18    0.37    0.66    0.00    0.60    0.05    0.08    0.11    0.16    0.20       0
 2014 333   206    4417   0.156    5050   0.178   32189       0   32189    1105    2207    3318    8516   17044       0     216      31      61      96      10      18    2910     452     903    1357      66     132   29061     621    1242    1865    8439   16893    0.00    2.02    0.14    0.22    0.28    0.53    0.86    0.00    1.43    0.09    0.13    0.18    0.37    0.66    0.00    0.60    0.05    0.08    0.11    0.16    0.20       0
 2014 334   207    4417   0.156    5050   0.178   32189       0   32189    1105    2207    3318    8516   17044       0     216      31      61      96      10      18    2910     452     903    1357      66     132   29061     621    1243    1865    8439   16893    0.00    2.01    0.13    0.22    0.28    0.52    0.85    0.00    1.41    0.09    0.13    0.18    0.37    0.65    0.00    0.60    0.05    0.08    0.11    0.16    0.20       0
 2014 335   208    4417   0.156    5050   0.178   32189       0   32189    1105    2207    3318    8516   17044       0     216      31      61      96      10      18    2910     452     903    1357      66     132   29060     621    1243    1865    8439   16893    0.00    2.00    0.13    0.22    0.28    0.52    0.85    0.00    1.40    0.08    0.13    0.18    0.36    0.65    0.00    0.60    0.05    0.08    0.11    0.16    0.20       0
 2014 336   209    4417   0.156    5050   0.178   32189       0   32189    1105    2207    3318    8516   17044       0     216      31      61      96      10      18    2910     452     903    1357      66     132   29060     621    1243    1865    8439   16893    0.00    1.99    0.13    0.22    0.28    0.52    0.84    0.00    1.39    0.08    0.13    0.18    0.36    0.64    0.00    0.60    0.05    0.08    0.11    0.16    0.20       0
 2014 337   210    4417   0.156    5050   0.178   32189       0   32189    1105    2207    3318    8516   17044       0     216      31      61      96      10      18    2910     452     903    1357      66     132   29060     621    1243    1865    8439   16893    0.00    1.98    0.13    0.22    0.28    0.51    0.84    0.00    1.38    0.08    0.13    0.17    0.36    0.64    0.00    0.60    0.05    0.08    0.11    0.16    0.20       0
 2014 338   211    4417   0.156    5050   0.178   32189       0   32189    1105    2207    3318    8516   17044       0     216      31      61      96      10      18    2910     452     903    1357      66     132   29060     621    1243    1865    8439   16893    0.00    1.97    0.13    0.22    0.28    0.51    0.84    0.00    1.38    0.08    0.13    0.17    0.36    0.63    0.00    0.60    0.05    0.08    0.11    0.16    0.20       0
 2014 339   212    4417   0.156    5050   0.178   32188       0   32188    1105    2207    3318    8516   17044       0     216      31      61      96      10      18    2910     452     903    1357      66     132   29060     621    1243    1865    8439   16893    0.00    1.97    0.13    0.22    0.28    0.51    0.83    0.00    1.37    0.08    0.13    0.17    0.36    0.63    0.00    0.60    0.05    0.08    0.11    0.16    0.20       0
 2014 340   213    4417   0.156    5050   0.178   32188       0   32188    1105    2207    3318    8516   17044       0     216      31      61      96      10      18    2910     452     903    1357      66     132   29060     621    1243    1865    8439   16893    0.00    1.96    0.13    0.22    0.28    0.51    0.83    0.00    1.37    0.08    0.13    0.17    0.35    0.63    0.00    0.60    0.05    0.08    0.11    0.16    0.20       0
 2014 341   214    4417   0.156    5050   0.178   32188       0   32188    1105    2207    3318    8516   17044       0     216      31      61      96      10      18    2910     452     903    1357      66     132   29060     621    1243    1865    8439   16893    0.00    1.96    0.13    0.22    0.28    0.51    0.83    0.00    1.36    0.08    0.13    0.17    0.35    0.62    0.00    0.60    0.05    0.08    0.11    0.16    0.20       0
 2014 342   215    4417   0.156    5050   0.178   32188       0   32188    1105    2207    3318    8516   17044       0     216      31      61      96      10      18    2910     452     903    1357      66     132   29060     621    1243    1865    8439   16893    0.00    1.95    0.13    0.21    0.28    0.51    0.83    0.00    1.36    0.08    0.13    0.17    0.35    0.62    0.00    0.60    0.05    0.08    0.11    0.16    0.20       0
 2014 343   216    4417   0.156    5050   0.178   32188       0   32188    1105    2207    3318    8516   17044       0     216      31      61      96      10      18    2910     452     903    1357      66     132   29060     621    1243    1865    8439   16893    0.00    1.95    0.13    0.21    0.28    0.51    0.82    0.00    1.36    0.08    0.13    0.17    0.35    0.62    0.00    0.60    0.05    0.08    0.11    0.16    0.20       0
 2014 344   217    4417   0.156    5050   0.178   32188       0   32188    1105    2207    3318    8516   17044       0     216      31      61      96      10      18    2910     452     903    1357      66     132   29060     621    1243    1865    8439   16893    0.00    1.95    0.13    0.21    0.28    0.51    0.82    0.00    1.35    0.08    0.13    0.17    0.35    0.62    0.00    0.60    0.05    0.08    0.11    0.16    0.20       0
 2014 345   218    4417   0.156    5050   0.178   32188       0   32188    1105    2207    3318    8516   17043       0     216      31      61      96      10      18    2910     452     903    1357      66     132   29060     621    1243    1865    8439   16893    0.00    1.94    0.13    0.21    0.28    0.51    0.82    0.00    1.35    0.08    0.13    0.17    0.35    0.62    0.00    0.60    0.05    0.08    0.11    0.16    0.20       0
 2014 346   219    4417   0.156    5050   0.178   32188       0   32188    1104    2207    3318    8516   17043       0     216      31      61      96      10      18    2910     452     903    1357      66     132   29060     621    1243    1865    8439   16893    0.00    1.94    0.13    0.21    0.28    0.51    0.82    0.00    1.35    0.08    0.13    0.17    0.35    0.62    0.00    0.59    0.05    0.08    0.11    0.16    0.20       0
 2014 347   220    4417   0.156    5050   0.178   32188       0   32188    1104    2207    3318    8516   17043       0     216      31      61      96      10      18    2910     452     903    1357      66     132   29060     621    1243    1865    8439   16893    0.00    1.94    0.13    0.21    0.28    0.50    0.82    0.00    1.34    0.08    0.13    0.17    0.35    0.62    0.00    0.59    0.05    0.08    0.11    0.16    0.20       0
 2014 348   221    4417   0.156    5050   0.178   32188       0   32188    1104    2207    3318    8516   17043       0     216      31      61      96      10      18    2910     452     903    1357      66     132   29060     621    1243    1865    8439   16893    0.00    1.94    0.13    0.21    0.28    0.50    0.82    0.00    1.34    0.08    0.13    0.17    0.35    0.62    0.00    0.59    0.05    0.08    0.11    0.16    0.20       0
 2014 349   222    4417   0.156    5050   0.178   32188       0   32188    1104    2207    3318    8516   17043       0     216      31      61      96      10      18    2910     452     903    1357      66     132   29060     621    1243    1865    8439   16893    0.00    1.93    0.13    0.21    0.28    0.50    0.82    0.00    1.34    0.08    0.13    0.17    0.35    0.61    0.00    0.59    0.05    0.08    0.11    0.16    0.20       0
 2014 350   223    4417   0.156    5050   0.178   32188       0   32188    1104    2207    3318    8516   17043       0     216      31      61      96      10      18    2910     452     903    1357      66     132   29060     621    1243    1865    8439   16893    0.00    1.93    0.13    0.21    0.28    0.50    0.81    0.00    1.34    0.08    0.13    0.17    0.35    0.61    0.00    0.59    0.05    0.08    0.11    0.16    0.20       0
 2014 351   224    4417   0.156    5050   0.178   32188       0   32188    1104    2207    3318    8516   17043       0     216      31      61      96      10      18    2909     452     903    1357      66     132   29060     621    1243    1865    8439   16893    0.00    1.93    0.13    0.21    0.28    0.50    0.81    0.00    1.33    0.08    0.13    0.17    0.35    0.61    0.00    0.59    0.05    0.08    0.11    0.16    0.20       0
 2014 352   225    4417   0.156    5050   0.178   32188       0   32188    1104    2207    3318    8516   17043       0     216      31      61      96      10      18    2909     452     903    1357      66     132   29060     621    1243    1865    8439   16893    0.00    1.93    0.13    0.21    0.28    0.50    0.81    0.00    1.33    0.08    0.13    0.17    0.35    0.61    0.00    0.59    0.05    0.08    0.11    0.16    0.20       0
 2014 353   226    4417   0.156    5050   0.178   32188       0   32188    1104    2207    3318    8516   17043       0     216      31      61      96      10      18    2909     452     903    1357      66     132   29060     621    1243    1865    8439   16893    0.00    1.92    0.12    0.21    0.27    0.50    0.81    0.00    1.33    0.08    0.13    0.17    0.35    0.61    0.00    0.59    0.05    0.08    0.11    0.16    0.20       0
 2014 354   227    4416   0.156    5050   0.178   32188       0   32188    1104    2207    3318    8516   17043       0     216      31      61      96      10      18    2909     452     903    1357      66     132   29060     621    1243    1865    8439   16893    0.00    1.92    0.12    0.21    0.27    0.50    0.81    0.00    1.33    0.08    0.13    0.17    0.34    0.61    0.00    0.59    0.05    0.08    0.11    0.16    0.20       0
 2014 355   228    4416   0.156    5050   0.178   32188       0   32188    1104    2207    3318    8516   17043       0     216      31      61      96      10      18    2909     452     903    1357      66     132   29060     621    1243    1865    8439   16893    0.00    1.92    0.12    0.21    0.27    0.50    0.81    0.00    1.33    0.08    0.13    0.17    0.34    0.61    0.00    0.59    0.05    0.08    0.11    0.16    0.20       0
 2014 356   229    4416   0.156    5050   0.178   32188       0   32188    1104    2207    3318    8516   17043       0     216      31      61      96      10      18    2909     452     903    1357      66     132   29060     621    1243    1865    8439   16893    0.00    1.92    0.12    0.21    0.27    0.50    0.81    0.00    1.32    0.08    0.13    0.17    0.34    0.61    0.00    0.59    0.05    0.08    0.11    0.16    0.20       0
 2014 357   230    4416   0.156    5050   0.178   32188       0   32188    1104    2206    3318    8516   17043       0     216      31      61      96      10      18    2909     452     903    1357      66     132   29060     621    1243    1865    8439   16893    0.00    1.91    0.12    0.21    0.27    0.50    0.81    0.00    1.32    0.08    0.13    0.17    0.34    0.60    0.00    0.59    0.05    0.08    0.11    0.16    0.20       0
 2014 358   231    4416   0.156    5050   0.178   32188       0   32188    1104    2206    3318    8516   17043       0     216      31      61      96      10      18    2909     452     903    1357      66     132   29060     621    1243    1865    8439   16893    0.00    1.91    0.12    0.21    0.27    0.50    0.81    0.00    1.32    0.08    0.13    0.17    0.34    0.60    0.00    0.59    0.05    0.08    0.11    0.16    0.20       0
 2014 359   232    4416   0.156    5050   0.178   32188       0   32188    1104    2206    3318    8516   17043       0     216      31      61      96      10      18    2909     452     903    1357      66     132   29060     621    1243    1865    8439   16893    0.00    1.91    0.12    0.21    0.27    0.50    0.80    0.00    1.32    0.08    0.13    0.17    0.34    0.60    0.00    0.59    0.05    0.08    0.11    0.16    0.20       0
 2014 360   233    4416   0.156    5050   0.178   32187       0   32187    1104    2206    3318    8516   17043       0     216      31      61      96      10      18    2909     452     903    1357      66     132   29060     621    1243    1865    8439   16893    0.00    1.91    0.12    0.21    0.27    0.50    0.80    0.00    1.31    0.08    0.13    0.17    0.34    0.60    0.00    0.59    0.05    0.08    0.11    0.16    0.20       0
 2014 361   234    4416   0.156    5050   0.178   32187       0   32187    1104    2206    3318    8516   17043       0     216      31      61      96      10      18    2909     452     903    1357      66     132   29060     621    1243    1865    8439   16893    0.00    1.90    0.12    0.21    0.27    0.50    0.80    0.00    1.31    0.08    0.13    0.17    0.34    0.60    0.00    0.59    0.05    0.08    0.11    0.16    0.20       0
 2014 362   235    4416   0.156    5050   0.178   32187       0   32187    1104    2206    3318    8516   17043       0     216      31      61      96      10      18    2909     452     903    1357      66     132   29060     621    1243    1865    8439   16893    0.00    1.90    0.12    0.21    0.27    0.49    0.80    0.00    1.31    0.08    0.13    0.17    0.34    0.60    0.00    0.59    0.05    0.08    0.11    0.16    0.20       0
 2014 363   236    4416   0.156    5050   0.178   32187       0   32187    1104    2206    3318    8516   17043       0     216      31      61      96      10      18    2909     452     903    1357      66     132   29060     621    1243    1865    8439   16893    0.00    1.90    0.12    0.21    0.27    0.49    0.80    0.00    1.31    0.08    0.13    0.17    0.34    0.60    0.00    0.59    0.05    0.08    0.11    0.16    0.20       0
