*PLANT N OUTPUT FILE

*DSSAT Cropping System Model Ver. 4.7.2.000 -release      OCT 15, 2021; 17:59:34
                                                                                
*RUN   1        :             CSM335_date_1 MZCER047 ITSA1301    1              
 MODEL          : MZCER047 - Maize                                              
 EXPERIMENT     : ITSA1301 SG CALIBRATION SETUP OF SORGHUM SOWING DATES         
 DATA PATH      :                                                               
 TREATMENT  1   :             CSM335_date_1 MZCER047                            
  
@YEAR DOY   DAS   DAP   CNAD   GNAD   VNAD   GN%D   VN%D   NUPC   LNAD   SNAD   LN%D   SN%D   RN%D   SNN0C   SNN1C
 2009 105     2     0    0.0    0.0    0.0   0.00   0.00    0.0    0.0    0.0    0.0   0.00   0.00    0.00    0.00
 2009 106     3     1    0.0    0.0    0.0   0.00   0.00    0.0    0.0    0.0    0.0   0.00   0.00    0.00    0.00
 2009 107     4     2    0.0    0.0    0.0   0.00   0.00    0.0    0.0    0.0    0.0   0.00   0.00    0.00    0.00
 2009 108     5     3    0.0    0.0    0.0   0.00   0.00    0.0    0.0    0.0    0.0   0.00   0.00    0.00    0.00
 2009 109     6     4    1.5    0.0    1.5   0.00   4.40    0.0    0.8    0.8    4.4   4.40   2.20    0.00    0.00
 2009 110     7     5    1.5    0.0    1.5   0.00   4.40    0.0    0.8    0.8    4.4   4.40   2.17    0.00    0.00
 2009 111     8     6    1.5    0.0    1.5   0.00   4.40    0.0    0.8    0.8    4.4   4.40   2.10    0.00    0.00
 2009 112     9     7    1.5    0.0    1.5   0.00   4.40    0.0    0.8    0.8    4.4   4.40   2.00    0.00    0.00
 2009 113    10     8    1.5    0.0    1.5   0.00   4.40    0.0    0.8    0.8    4.4   4.40   1.87    0.00    0.00
 2009 114    11     9    1.5    0.0    1.5   0.00   4.40    0.0    0.8    0.8    4.4   4.40   1.75    0.00    0.00
 2009 115    12    10    1.5    0.0    1.5   0.00   4.40    0.0    0.8    0.8    4.4   4.40   1.61    0.00    0.00
 2009 116    13    11    1.5    0.0    1.5   0.00   4.40    0.0    0.8    0.8    4.4   4.40   1.43    0.00    0.00
 2009 117    14    12    1.5    0.0    1.5   0.00   4.00    0.0    0.8    0.7    4.0   4.00   1.36    0.00    0.00
 2009 118    15    13    1.6    0.0    1.6   0.00   3.56    0.0    1.0    0.6    3.6   3.56   1.15    0.00    0.00
 2009 119    16    14    1.8    0.0    1.8   0.00   3.65    0.3    1.2    0.6    3.6   3.65   1.20    0.00    0.00
 2009 120    17    15    2.0    0.0    2.0   0.00   3.68    0.6    1.4    0.6    3.7   3.68   1.27    0.00    0.01
 2009 121    18    16    2.2    0.0    2.2   0.00   3.54    0.8    1.6    0.6    3.5   3.54   1.18    0.00    0.01
 2009 122    19    17    2.5    0.0    2.5   0.00   3.60    1.1    1.9    0.6    3.6   3.60   1.24    0.00    0.01
 2009 123    20    18    2.7    0.0    2.7   0.00   3.56    1.5    2.1    0.6    3.6   3.56   1.26    0.00    0.01
 2009 124    21    19    2.9    0.0    2.9   0.00   3.65    1.8    2.3    0.6    3.7   3.65   1.26    0.00    0.02
 2009 125    22    20    3.1    0.0    3.1   0.00   3.49    1.9    2.5    0.6    3.5   3.49   1.09    0.00    0.02
 2009 126    23    21    3.4    0.0    3.4   0.00   3.25    2.3    2.9    0.6    3.3   3.25   1.11    0.00    0.02
 2009 127    24    22    4.6    0.0    4.6   0.00   3.81    3.5    4.0    0.7    3.8   3.81   1.12    0.00    0.03
 2009 128    25    23    5.2    0.0    5.2   0.00   3.86    4.2    4.5    0.7    3.9   3.86   1.21    0.00    0.03
 2009 129    26    24    5.5    0.0    5.5   0.00   3.77    4.7    4.8    0.7    3.8   3.77   1.32    0.00    0.04
 2009 130    27    25    5.9    0.0    5.9   0.00   3.55    4.9    5.3    0.6    3.6   3.55   1.08    0.00    0.04
 2009 131    28    26    6.6    0.0    6.6   0.00   3.77    6.0    5.9    0.7    3.8   3.77   1.43    0.00    0.05
 2009 132    29    27    6.9    0.0    6.9   0.00   3.50    6.0    6.3    0.6    3.5   3.50   1.09    0.00    0.05
 2009 133    30    28    7.7    0.0    7.7   0.00   3.73    7.3    7.0    0.7    3.7   3.73   1.39    0.00    0.06
 2009 134    31    29    8.0    0.0    8.0   0.00   3.67    7.6    7.3    0.7    3.7   3.67   1.37    0.00    0.07
 2009 135    32    30    8.3    0.0    8.3   0.00   3.59    7.9    7.6    0.7    3.6   3.59   1.25    0.00    0.07
 2009 136    33    31    8.9    0.0    8.9   0.00   3.61    8.5    8.1    0.8    3.6   3.61   1.28    0.00    0.08
 2009 137    34    32    9.3    0.0    9.3   0.00   3.58    9.0    8.5    0.8    3.6   3.58   1.28    0.00    0.09
 2009 138    35    33    9.8    0.0    9.8   0.00   3.57    9.5    8.9    0.9    3.6   3.57   1.26    0.00    0.09
 2009 139    36    34   10.1    0.0   10.1   0.00   3.49    9.8    9.2    0.9    3.5   3.49   1.19    0.00    0.10
 2009 140    37    35   10.7    0.0   10.7   0.00   3.45   10.3    9.6    1.0    3.5   3.45   1.10    0.00    0.11
 2009 141    38    36   11.2    0.0   11.2   0.00   3.48   11.1   10.1    1.1    3.5   3.48   1.25    0.00    0.12
 2009 142    39    37   11.7    0.0   11.7   0.00   3.46   11.4   10.4    1.2    3.5   3.46   1.18    0.00    0.13
 2009 143    40    38   12.1    0.0   12.1   0.00   3.46   11.9   10.8    1.3    3.5   3.46   1.17    0.00    0.13
 2009 144    41    39   12.4    0.0   12.4   0.00   3.38   12.1   11.0    1.5    3.4   3.38   1.11    0.00    0.14
 2009 145    42    40   12.4    0.0   12.4   0.00   3.06   12.1   10.8    1.7    3.1   3.06   1.10    0.00    0.14
 2009 146    43    41   13.9    0.0   13.9   0.00   2.94   13.7   11.7    2.2    2.9   2.94   1.09    0.00    0.15
 2009 147    44    42   16.3    0.0   16.3   0.00   2.90   16.1   13.3    3.0    2.9   2.90   1.10    0.00    0.16
 2009 148    45    43   18.6    0.0   18.6   0.00   2.87   18.4   14.4    4.2    2.9   2.87   1.10    0.00    0.16
 2009 149    46    44   20.8    0.0   20.8   0.00   2.87   20.7   15.2    5.6    2.9   2.87   1.10    0.00    0.17
 2009 150    47    45   22.0    0.0   22.0   0.00   2.81   21.9   15.5    6.5    2.8   2.81   1.09    0.00    0.18
 2009 151    48    46   24.4    0.0   24.4   0.00   2.90   24.4   16.5    7.9    2.9   2.90   1.11    0.00    0.19
 2009 152    49    47   25.9    0.0   25.9   0.00   2.90   25.9   16.9    9.0    2.9   2.90   1.12    0.00    0.20
 2009 153    50    48   26.9    0.0   26.9   0.00   2.86   27.0   17.1    9.8    2.9   2.86   1.12    0.00    0.21
 2009 154    51    49   28.2    0.0   28.2   0.00   2.86   28.3   17.4   10.8    2.9   2.86   1.13    0.00    0.22
 2009 155    52    50   28.5    0.0   28.5   0.00   2.78   28.6   17.2   11.4    2.8   2.78   1.12    0.00    0.23
 2009 156    53    51   28.8    0.0   28.8   0.00   2.71   28.9   16.9   11.8    2.7   2.71   1.10    0.00    0.23
 2009 157    54    52   29.7    0.0   29.7   0.00   2.70   29.8   17.1   12.6    2.7   2.70   1.11    0.00    0.24
 2009 158    55    53   30.5    0.0   30.5   0.00   2.70   30.6   17.2   13.2    2.7   2.70   1.12    0.00    0.25
 2009 159    56    54   31.1    0.0   31.1   0.00   2.68   31.3   17.3   13.8    2.7   2.68   1.12    0.00    0.26
 2009 160    57    55   31.5    0.0   31.5   0.00   2.65   31.8   17.3   14.3    2.7   2.65   1.12    0.00    0.27
 2009 161    58    56   31.5    0.0   31.5   0.00   2.59   31.8   17.0   14.5    2.6   2.59   1.12    0.00    0.27
 2009 162    59    57   31.5    0.0   31.5   0.00   2.53   31.8   16.8   14.8    2.5   2.53   1.11    0.00    0.27
 2009 163    60    58   31.8    0.0   31.8   0.00   2.43   32.0   16.4   15.4    2.4   2.43   1.09    0.00    0.28
 2009 164    61    59   32.5    0.0   32.5   0.00   2.41   32.7   16.4   16.1    2.4   2.41   1.08    0.00    0.29
 2009 165    62    60   33.6    0.0   33.6   0.00   2.38   33.9   16.5   17.1    2.4   2.38   1.09    0.00    0.30
 2009 166    63    61   35.6    0.0   35.6   0.00   2.37   36.0   16.9   18.8    2.4   2.37   1.10    0.00    0.31
 2009 167    64    62   36.2    0.0   36.2   0.00   2.33   36.6   16.8   19.4    2.3   2.33   1.08    0.00    0.32
 2009 168    65    63   37.2    0.0   37.2   0.00   2.31   37.7   16.9   20.3    2.3   2.31   1.09    0.00    0.33
 2009 169    66    64   39.2    0.0   39.2   0.00   2.31   39.7   17.4   21.8    2.3   2.31   1.10    0.00    0.34
 2009 170    67    65   40.3    0.0   40.3   0.00   2.28   40.8   17.5   22.8    2.3   2.28   1.09    0.00    0.35
 2009 171    68    66   41.3    0.0   41.3   0.00   2.25   41.9   17.7   23.7    2.3   2.25   1.09    0.00    0.36
 2009 172    69    67   41.6    0.0   41.6   0.00   2.26   42.2   17.5   24.1    2.3   2.26   1.08    0.00    0.37
 2009 173    70    68   41.6    0.0   41.6   0.00   2.25   42.2   17.1   24.6    2.2   2.25   1.06    0.00    0.37
 2009 174    71    69   41.6    0.0   41.6   0.00   2.23   42.2   16.6   25.0    2.2   2.23   1.04    0.00    0.37
 2009 175    72    70   41.6    0.0   41.6   0.00   2.24   42.2   16.3   25.3    2.2   2.24   1.04    0.00    0.37
 2009 176    73    71   41.6    0.0   41.6   0.00   2.24   42.2   16.0   25.6    2.2   2.24   1.03    0.00    0.37
 2009 177    74    72   41.6    0.0   41.6   0.00   2.25   42.2   15.7   25.9    2.3   2.25   1.02    0.00    0.37
 2009 178    75    73   41.6    0.0   41.6   0.00   2.26   42.2   15.3   26.3    2.3   2.26   1.01    0.00    0.37
 2009 179    76    74   41.6    0.0   41.6   0.00   2.28   42.2   15.0   26.6    2.3   2.28   1.00    0.00    0.37
 2009 180    77    75   41.6    0.0   41.6   0.00   2.29   42.2   14.6   27.0    2.3   2.29   1.00    0.00    0.37
 2009 181    78    76   41.6    1.6   40.0   1.73   2.21   42.2   14.1   25.9    2.2   2.21   1.00    0.00    0.37
 2009 182    79    77   41.6    3.2   38.4   1.74   2.13   42.2   13.6   24.8    2.1   2.13   1.01    0.00    0.37
 2009 183    80    78   41.6    4.8   36.9   1.75   2.04   42.2   13.0   23.9    2.0   2.04   0.99    0.00    0.37
 2009 184    81    79   41.6    6.4   35.2   1.75   1.94   42.2   12.4   22.8    1.9   1.94   0.96    0.00    0.37
 2009 185    82    80   41.6    8.0   33.6   1.75   1.86   42.2   11.9   21.7    1.9   1.86   0.97    0.00    0.37
 2009 186    83    81   41.6    9.7   32.0   1.75   1.76   42.2   11.2   20.7    1.8   1.76   0.95    0.00    0.37
 2009 187    84    82   41.6   11.2   30.4   1.75   1.67   42.2   10.7   19.7    1.7   1.67   0.95    0.00    0.37
 2009 188    85    83   42.3   12.9   29.5   1.75   1.62   43.2   10.4   19.1    1.6   1.62   1.06    0.00    0.38
 2009 189    86    84   42.8   14.5   28.3   1.74   1.59   43.6   10.2   18.1    1.6   1.59   1.06    0.00    0.39
 2009 190    87    85   43.3   16.1   27.2   1.74   1.56   44.2   10.0   17.2    1.6   1.56   1.06    0.00    0.41
 2009 191    88    86   44.0   17.7   26.2   1.74   1.53   44.8    9.8   16.5    1.5   1.53   1.06    0.00    0.42
 2009 192    89    87   44.6   19.3   25.2   1.74   1.50   45.4    9.6   15.7    1.5   1.50   1.06    0.00    0.43
 2009 193    90    88   45.4   20.9   24.4   1.74   1.47   46.2    9.4   15.0    1.5   1.47   1.06    0.00    0.44
 2009 194    91    89   46.3   22.3   24.0   1.75   1.45   47.1    9.3   14.7    1.5   1.45   1.07    0.00    0.45
 2009 195    92    90   46.7   23.8   22.9   1.75   1.41   47.5    9.0   13.9    1.4   1.41   1.07    0.00    0.47
 2009 196    93    91   47.7   24.9   22.8   1.75   1.41   48.6    9.0   13.7    1.4   1.41   1.07    0.00    0.48
 2009 197    94    92   48.1   26.1   22.0   1.76   1.38   49.0    8.8   13.2    1.4   1.38   1.07    0.00    0.49
 2009 198    95    93   48.3   27.7   20.6   1.76   1.32   49.1    8.4   12.1    1.3   1.32   1.07    0.00    0.50
 2009 199    96    94   48.3   28.5   19.8   1.76   1.29   49.1    8.3   11.5    1.3   1.29   1.07    0.00    0.50
 2009 200    97    95   48.8   29.2   19.6   1.76   1.28   49.6    8.2   11.4    1.3   1.28   1.07    0.00    0.51
 2009 201    98    96   49.0   29.9   19.1   1.77   1.25   49.8    7.9   11.1    1.2   1.25   1.07    0.00    0.52
 2009 202    99    97   49.0   30.6   18.4   1.77   1.20   49.8    7.7   10.7    1.2   1.20   1.07    0.00    0.52
 2009 203   100    98   49.4   31.2   18.2   1.77   1.19   50.2    7.6   10.6    1.2   1.19   1.07    0.00    0.53
 2009 204   101    99   49.4   31.8   17.6   1.77   1.15   50.2    7.3   10.2    1.1   1.15   1.07    0.00    0.53
 2009 205   102   100   49.5   32.4   17.1   1.77   1.12   50.3    7.1   10.0    1.1   1.12   1.07    0.00    0.55
 2009 206   103   101   49.9   33.3   16.6   1.77   1.08   50.8    6.9    9.7    1.1   1.08   1.07    0.00    0.56
 2009 207   104   102   50.3   34.1   16.3   1.77   1.06   51.1    6.8    9.5    1.1   1.06   1.07    0.00    0.57
 2009 208   105   103   50.5   34.6   15.8   1.77   1.04   51.3    6.6    9.2    1.0   1.04   1.07    0.00    0.58
 2009 209   106   104   50.7   35.2   15.5   1.77   1.01   51.5    6.5    9.0    1.0   1.01   1.07    0.00    0.59
 2009 210   107   105   51.0   35.7   15.4   1.77   1.00   51.9    6.4    9.0    1.0   1.00   1.07    0.00    0.60
 2009 211   108   106   51.0   35.7   15.4   1.77   1.00   51.9    6.4    9.0    1.0   1.00   1.07    0.00    0.60
 2009 212   109   107   51.0   35.7   15.4   1.77   1.00   51.9    6.4    9.0    1.0   1.00   1.07    0.00    0.60
 2009 213   110   108   51.0   35.7   15.4   1.77   1.00   51.9    6.4    9.0    1.0   1.00   1.07    0.00    0.60
 2009 214   111   109   51.0   35.7   15.4   1.77   1.00   51.9    6.4    9.0    1.0   1.00   1.07    0.00    0.60
 2009 215   112   110   51.0   35.7   15.4   1.77   1.00   51.9    6.4    9.0    1.0   1.00   1.07    0.00    0.60
 2009 216   113   111   51.0   35.7   15.4   1.77   1.00   51.9    6.4    9.0    1.0   1.00   1.07    0.00    0.60
 2009 217   114   112   51.0   35.7   15.4   1.77   1.00   51.9    6.4    9.0    1.0   1.00   1.07    0.00    0.60
 2009 218   115   113   51.0   35.7   15.4   1.77   1.00   51.9    6.4    9.0    1.0   1.00   1.07    0.00    0.60
 2009 219   116   114   51.0   35.7   15.4   1.77   1.00   51.9    6.4    9.0    1.0   1.00   1.07    0.00    0.60
 2009 220   117   115   51.0   35.7   15.4   1.77   1.00   51.9    6.4    9.0    1.0   1.00   1.07    0.00    0.60
 2009 221   118   116   51.0   35.7   15.4   1.77   1.00   51.9    6.4    9.0    1.0   1.00   1.07    0.00    0.60
 2009 222   119   117   51.0   35.7   15.4   1.77   1.00   51.9    6.4    9.0    1.0   1.00   1.07    0.00    0.60
 2009 223   120   118   51.0   35.7   15.4   1.77   1.00   51.9    6.4    9.0    1.0   1.00   1.07    0.00    0.60
 2009 224   121   119   51.0   35.7   15.4   1.77   1.00   51.9    6.4    9.0    1.0   1.00   1.07    0.00    0.60
 2009 225   122   120   51.0   35.7   15.4   1.77   1.00   51.9    6.4    9.0    1.0   1.00   1.07    0.00    0.60
 2009 226   123   121   51.0   35.7   15.4   1.77   1.00   51.9    6.4    9.0    1.0   1.00   1.07    0.00    0.60
 2009 227   124   122   51.0   35.7   15.4   1.77   1.00   51.9    6.4    9.0    1.0   1.00   1.07    0.00    0.60
 2009 228   125   123   51.0   35.7   15.4   1.77   1.00   51.9    6.4    9.0    1.0   1.00   1.07    0.00    0.60
 2009 229   126   124   51.0   35.7   15.4   1.77   1.00   51.9    6.4    9.0    1.0   1.00   1.07    0.00    0.60
 2009 230   127   125   51.0   35.7   15.4   1.77   1.00   51.9    6.4    9.0    1.0   1.00   1.07    0.00    0.60
 2009 231   128   126   51.0   35.7   15.4   1.77   1.00   51.9    6.4    9.0    1.0   1.00   1.07    0.00    0.60
 2009 232   129   127   51.0   35.7   15.4   1.77   1.00   51.9    6.4    9.0    1.0   1.00   1.07    0.00    0.60
 2009 233   130   128   51.0   35.7   15.4   1.77   1.00   51.9    6.4    9.0    1.0   1.00   1.07    0.00    0.60
 2009 234   131   129   51.0   35.7   15.4   1.77   1.00   51.9    6.4    9.0    1.0   1.00   1.07    0.00    0.60
 2009 235   132   130   51.0   35.7   15.4   1.77   1.00   51.9    6.4    9.0    1.0   1.00   1.07    0.00    0.60
 2009 236   133   131   51.0   35.7   15.4   1.77   1.00   51.9    6.4    9.0    1.0   1.00   1.07    0.00    0.60
 2009 237   134   132   51.0   35.7   15.4   1.77   1.00   51.9    6.4    9.0    1.0   1.00   1.07    0.00    0.60
 2009 238   135   133   51.0   35.7   15.4   1.77   1.00   51.9    6.4    9.0    1.0   1.00   1.07    0.00    0.60
 2009 239   136   134   51.0   35.7   15.4   1.77   1.00   51.9    6.4    9.0    1.0   1.00   1.07    0.00    0.60
 2009 240   137   135   51.0   35.7   15.4   1.77   1.00   51.9    6.4    9.0    1.0   1.00   1.07    0.00    0.60
 2009 241   138   136   51.0   35.7   15.4   1.77   1.00   51.9    6.4    9.0    1.0   1.00   1.07    0.00    0.60
 2009 242   139   137   51.0   35.7   15.4   1.77   1.00   51.9    6.4    9.0    1.0   1.00   1.07    0.00    0.60
 2009 243   140   138   51.0   35.7   15.4   1.77   1.00   51.9    6.4    9.0    1.0   1.00   1.07    0.00    0.60
 2009 244   141   139   51.0   35.7   15.4   1.77   1.00   51.9    6.4    9.0    1.0   1.00   1.07    0.00    0.60
 2009 245   142   140   51.0   35.7   15.4   1.77   1.00   51.9    6.4    9.0    1.0   1.00   1.07    0.00    0.60
 2009 246   143   141   51.0   35.7   15.4   1.77   1.00   51.9    6.4    9.0    1.0   1.00   1.07    0.00    0.60
 2009 247   144   142   51.0   35.7   15.4   1.77   1.00   51.9    6.4    9.0    1.0   1.00   1.07    0.00    0.60
 2009 248   145   143   51.0   35.7   15.4   1.77   1.00   51.9    6.4    9.0    1.0   1.00   1.07    0.00    0.60
 2009 249   146   144   51.0   35.7   15.4   1.77   1.00   51.9    6.4    9.0    1.0   1.00   1.07    0.00    0.60
 2009 250   147   145   51.0   35.7   15.4   1.77   1.00   51.9    6.4    9.0    1.0   1.00   1.07    0.00    0.60
