*GROWTH ASPECTS OUTPUT FILE

*DSSAT Cropping System Model Ver. 4.7.2.000 -release      OCT 15, 2021; 17:59:34
                                                                                
*RUN   1        :             CSM335_date_1 MZCER047 ITSA1301    1              
 MODEL          : MZCER047 - Maize                                              
 EXPERIMENT     : ITSA1301 SG CALIBRATION SETUP OF SORGHUM SOWING DATES         
 DATA PATH      :                                                               
 TREATMENT  1   :             CSM335_date_1 MZCER047                            
  
!                                                                                                                                                                                                                                      Root Dens. (cm/cm3) by soil depth (cm):
!                                                                                                                                                                                                                                      0-5    5-15   15-30   30-53   53-77  77-100
@YEAR DOY   DAS   DAP   L#SD   GSTD   LAID   LWAD   SWAD   GWAD   RWAD   VWAD   CWAD   G#AD   GWGD   HIAD   PWAD   P#AD   WSPD   WSGD   NSTD   EWSD  PST1A  PST2A   KSTD   LN%D   SH%D   HIPD   PWDD   PWTD     SLAD   CHTD   CWID   RDPD    RL1D    RL2D    RL3D    RL4D    RL5D    RL6D   CDAD   LDAD   SDAD   SNW0C   SNW1C  DTTD
 2009 105     2     0    0.0      0   0.00      0      0      0      0      0      0      0    0.0  0.000      0      0  0.000  0.000  0.000  0.000  0.000  0.000  0.000   0.00   0.00   0.00      0      0      0.0   0.00   0.00   0.03    0.00    0.00    0.00    0.00    0.00    0.00      0      0      0       0       0 18.34
 2009 106     3     1    0.0      0   0.00      0      0      0      0      0      0      0    0.0  0.000      0      0  0.000  0.000  0.000  0.000  0.000  0.000  0.000   0.00   0.00   0.00      0      0      0.0   0.00   0.00   0.06    0.00    0.00    0.00    0.00    0.00    0.00      0      0      0       0       0 22.45
 2009 107     4     2    0.0      0   0.00      0      0      0      0      0      0      0    0.0  0.000      0      0  0.000  0.000  0.000  0.000  0.000  0.000  0.000   0.00   0.00   0.00      0      0      0.0   0.00   0.00   0.10    0.00    0.00    0.00    0.00    0.00    0.00      0      0      0       0       0 22.58
 2009 108     5     3    0.0      0   0.00      0      0      0      0      0      0      0    0.0  0.000      0      0  0.000  0.000  0.000  0.000  0.000  0.000  0.000   0.00   0.00   0.00      0      0      0.0   0.00   0.00   0.13    0.00    0.00    0.00    0.00    0.00    0.00      0      0      0       0       0 20.24
 2009 109     6     4    1.0      1   0.00     18     18      0     18     35     35      0    0.0  0.000      0      0  0.000  0.000  0.012  0.000  0.000  0.000  0.000   4.40   0.00   0.00      0      0     20.8   0.00   0.00   0.15    0.35    0.14    0.00    0.00    0.00    0.00      0      0      0       0       0 22.25
 2009 110     7     5    2.0      1   0.01     18     18      0     18     35     35      0    0.0  0.000      0      0  0.000  0.000  0.014  0.000  0.000  0.000  0.000   4.40   0.00   0.00      0      0     38.2   0.00   0.00   0.17    0.35    0.14    0.00    0.00    0.00    0.00      0      0      0       0       0 21.47
 2009 111     8     6    2.0      1   0.01     18     18      0     18     35     35      0    0.0  0.000      0      0  0.000  0.000  0.009  0.000  0.000  0.000  0.000   4.40   0.00   0.00      0      0     58.0   0.00   0.00   0.19    0.36    0.15    0.00    0.00    0.00    0.00      0      0      0       0       0 21.59
 2009 112     9     7    3.0      1   0.01     18     18      0     19     35     35      0    0.0  0.000      0      0  0.000  0.000  0.003  0.000  0.000  0.000  0.000   4.40   0.00   0.00      0      0     80.4   0.01   0.00   0.22    0.36    0.15    0.00    0.00    0.00    0.00      0      0      0       0       0 22.26
 2009 113    10     8    3.0      1   0.02     18     18      0     21     35     35      0    0.0  0.000      0      0  0.000  0.000  0.000  0.000  0.000  0.000  0.000   4.40   0.00   0.00      0      0    104.0   0.01   0.00   0.24    0.37    0.16    0.01    0.00    0.00    0.00      0      0      0       0       0 21.68
 2009 114    11     9    3.0      1   0.02     18     18      0     22     35     35      0    0.0  0.000      0      0  0.000  0.000  0.000  0.000  0.000  0.000  0.000   4.40   0.00   0.00      0      0    129.1   0.01   0.00   0.26    0.38    0.17    0.02    0.00    0.00    0.00      0      0      0       0       0 21.63
 2009 115    12    10    4.0      1   0.04     18     18      0     24     35     35      0    0.0  0.000      0      0  0.000  0.000  0.000  0.000  0.000  0.000  0.000   4.40   0.00   0.00      0      0    211.0   0.01   0.00   0.28    0.39    0.19    0.03    0.00    0.00    0.00      0      0      0       0       0 21.84
 2009 116    13    11    4.0      1   0.05     18     18      0     27     35     35      0    0.0  0.000      0      0  0.000  0.000  0.000  0.000  0.000  0.000  0.000   4.40   0.00   0.00      0      0    299.6   0.02   0.00   0.30    0.41    0.21    0.05    0.00    0.00    0.00      0      0      0       0       0 20.94
 2009 117    14    12    4.0      1   0.07     21     18      0     28     39     39      0    0.0  0.000      0      0  0.000  0.000  0.000  0.000  0.000  0.000  0.000   4.00   0.00   0.00      0      0    329.4   0.03   0.00   0.32    0.42    0.21    0.06    0.00    0.00    0.00      0      0      0       0       0 21.52
 2009 118    15    13    4.0      1   0.09     27     18      0     31     45     45      0    0.0  0.000      0      0  0.000  0.197  0.000  0.000  0.000  0.000  0.000   3.56   0.00   0.00      0      0    312.2   0.03   0.00   0.35    0.43    0.23    0.08    0.00    0.00    0.00      0      0      0       0       0 22.05
 2009 119    16    14    5.0      1   0.10     33     18      0     34     50     50      0    0.0  0.000      0      0  0.113  0.409  0.000  0.000  0.000  0.000  0.000   3.65   0.00   0.00      0      0    300.3   0.04   0.00   0.39    0.43    0.25    0.10    0.01    0.00    0.00      0      0      0       0       0 22.88
 2009 120    17    15    5.0      1   0.11     38     18      0     38     56     56      0    0.0  0.000      0      0  0.277  0.518  0.000  0.000  0.000  0.000  0.000   3.68   0.00   0.00      0      0    288.6   0.04   0.00   0.44    0.43    0.27    0.12    0.01    0.00    0.00      0      0      0       0       0 22.90
 2009 121    18    16    5.0      1   0.13     45     18      0     42     63     63      0    0.0  0.000      0      0  0.056  0.371  0.000  0.000  0.000  0.000  0.000   3.54   0.00   0.00      0      0    279.4   0.05   0.00   0.48    0.42    0.29    0.14    0.02    0.00    0.00      0      0      0       0       1 22.21
 2009 122    19    17    6.0      1   0.14     51     18      0     47     69     69      0    0.0  0.000      0      0  0.168  0.446  0.000  0.000  0.000  0.000  0.000   3.60   0.00   0.00      0      0    270.9   0.05   0.00   0.52    0.42    0.32    0.17    0.04    0.00    0.00      0      0      0       0       1 20.17
 2009 123    20    18    6.0      1   0.15     58     18      0     53     76     76      0    0.0  0.000      0      0  0.246  0.498  0.000  0.000  0.000  0.000  0.000   3.56   0.00   0.00      0      0    261.9   0.06   0.00   0.57    0.42    0.35    0.20    0.05    0.00    0.00      0      0      0       0       1 22.23
 2009 124    21    19    6.0      2   0.17     63     18      0     61     81     81      0    0.0  0.000      0      0  0.161  0.441  0.000  0.000  0.000  0.000  0.000   3.65   0.00   0.00      0      0    275.2   0.07   0.00   0.59    0.47    0.38    0.24    0.07    0.00    0.00      0      0      0       0       1 22.04
 2009 125    22    20    6.0      2   0.20     72     18      0     63     90     90      0    0.0  0.000      0      0  0.000  0.000  0.003  0.000  0.000  0.000  0.000   3.49   0.00   0.00      0      0    269.2   0.08   0.00   0.61    0.48    0.39    0.25    0.07    0.00    0.00      0      0      0       0       2 20.59
 2009 126    23    21    7.0      2   0.23     88     18      0     65    106    106      0    0.0  0.000      0      0  0.000  0.000  0.000  0.000  0.000  0.000  0.000   3.25   0.00   0.00      0      0    260.4   0.09   0.00   0.63    0.49    0.40    0.26    0.08    0.00    0.00      0      0      0       0       2 20.96
 2009 127    24    22    7.0      2   0.26    105     18      0     69    122    122      0    0.0  0.000      0      0  0.000  0.256  0.000  0.000  0.000  0.000  0.000   3.81   0.00   0.00      0      0    251.2   0.10   0.00   0.65    0.51    0.41    0.27    0.08    0.00    0.00      0      0      0       0       2 20.77
 2009 128    25    23    7.0      2   0.29    117     18      0     75    135    135      0    0.0  0.000      0      0  0.232  0.488  0.000  0.000  0.000  0.000  0.000   3.86   0.00   0.00      0      0    243.6   0.11   0.00   0.67    0.55    0.43    0.30    0.10    0.01    0.00      0      0      0       0       3 21.76
 2009 129    26    24    8.0      3   0.30    127     18      0     83    145    145      0    0.0  0.000      0      0  0.384  0.590  0.000  0.000  0.000  0.000  0.000   3.77   0.00   0.00      0      0    232.5   0.12   0.00   0.69    0.59    0.47    0.33    0.11    0.01    0.00      0      0      0       0       3 18.92
 2009 130    27    25    8.0      3   0.34    148     18      0     84    165    165      0    0.0  0.000      0      0  0.000  0.012  0.000  0.000  0.000  0.000  0.000   3.55   0.00   0.00      0      0    227.4   0.13   0.00   0.71    0.60    0.47    0.34    0.11    0.01    0.00      0      0      0       0       3 21.06
 2009 131    28    26    8.0      3   0.34    157     18      0     92    175    175      0    0.0  0.000      0      0  0.571  0.715  0.000  0.000  0.000  0.000  0.000   3.77   0.00   0.00      0      0    218.7   0.14   0.00   0.73    0.63    0.50    0.37    0.13    0.02    0.00      0      0      0       0       4 22.39
 2009 132    29    27    8.0      3   0.38    179     18      0     94    197    197      0    0.0  0.000      0      0  0.066  0.378  0.000  0.000  0.000  0.000  0.000   3.50   0.00   0.00      0      0    214.2   0.15   0.00   0.75    0.62    0.51    0.38    0.13    0.02    0.00      0      0      0       0       4 21.36
 2009 133    30    28    9.0      3   0.39    189     19      0    101    207    207      0    0.0  0.000      0      0  0.646  0.764  0.000  0.000  0.000  0.000  0.000   3.73   0.00   0.00      0      0    205.8   0.15   0.00   0.77    0.62    0.54    0.41    0.15    0.03    0.00      0      0      0       0       5 23.01
 2009 134    31    29    9.0      3   0.39    199     19      0    107    218    218      0    0.0  0.000      0      0  0.630  0.754  0.000  0.000  0.000  0.000  0.000   3.67   0.00   0.00      0      0    198.2   0.16   0.00   0.79    0.62    0.57    0.44    0.16    0.04    0.00      0      0      0       0       5 22.09
 2009 135    32    30    9.0      3   0.41    212     20      0    113    232    232      0    0.0  0.000      0      0  0.550  0.700  0.000  0.000  0.000  0.000  0.000   3.59   0.00   0.00      0      0    191.6   0.16   0.00   0.81    0.61    0.59    0.47    0.17    0.05    0.00      0      0      0       0       6 21.20
 2009 136    33    31   10.0      3   0.42    225     21      0    117    246    246      0    0.0  0.000      0      0  0.627  0.752  0.000  0.000  0.000  0.000  0.000   3.61   0.00   0.00      0      0    184.9   0.16   0.00   0.82    0.61    0.61    0.49    0.18    0.05    0.00      0      0      0       0       6 22.47
 2009 137    34    32   10.0      3   0.42    237     23      0    122    259    259      0    0.0  0.000      0      0  0.650  0.767  0.000  0.000  0.000  0.000  0.000   3.58   0.00   0.00      0      0    178.5   0.17   0.00   0.84    0.60    0.63    0.51    0.19    0.06    0.00      0      0      0       0       7 22.26
 2009 138    35    33   10.0      3   0.43    249     24      0    126    273    273      0    0.0  0.000      0      0  0.677  0.785  0.000  0.000  0.000  0.000  0.000   3.57   0.00   0.00      0      0    172.2   0.17   0.00   0.86    0.60    0.65    0.53    0.20    0.06    0.00      0      0      0       0       8 22.66
 2009 139    36    34   10.0      3   0.44    263     27      0    129    290    290      0    0.0  0.000      0      0  0.632  0.755  0.000  0.000  0.000  0.000  0.000   3.49   0.00   0.00      0      0    166.8   0.17   0.00   0.88    0.60    0.66    0.54    0.21    0.07    0.00      0      0      0       0       8 21.09
 2009 140    37    35   11.0      3   0.45    279     30      0    130    309    309      0    0.0  0.000      0      0  0.609  0.740  0.000  0.000  0.000  0.000  0.000   3.45   0.00   0.00      0      0    161.9   0.18   0.00   0.90    0.59    0.66    0.54    0.21    0.07    0.00      0      0      0       0       9 21.72
 2009 141    38    36   11.0      3   0.45    290     32      0    133    322    322      0    0.0  0.000      0      0  0.743  0.829  0.000  0.000  0.000  0.000  0.000   3.48   0.00   0.00      0      0    156.2   0.18   0.00   0.91    0.59    0.67    0.56    0.21    0.07    0.01      0      0      0       0      10 20.97
 2009 142    39    37   11.0      3   0.45    301     36      0    134    337    337      0    0.0  0.000      0      0  0.747  0.832  0.000  0.000  0.000  0.000  0.000   3.46   0.00   0.00      0      0    150.8   0.18   0.00   0.93    0.59    0.68    0.56    0.22    0.07    0.01      0      0      0       0      10 21.23
 2009 143    40    38   11.0      3   0.45    312     39      0    135    351    351      0    0.0  0.000      0      0  0.776  0.851  0.000  0.000  0.000  0.000  0.000   3.46   0.00   0.00      0      0    145.4   0.18   0.00   0.95    0.59    0.68    0.57    0.22    0.07    0.01      0      0      0       0      11 21.36
 2009 144    41    39   12.0      3   0.46    324     43      0    135    368    368      0    0.0  0.000      0      0  0.731  0.821  0.000  0.000  0.000  0.000  0.000   3.38   0.00   0.00      0      0    140.8   0.18   0.00   0.96    0.58    0.68    0.56    0.22    0.07    0.01      0      0      0       0      12 18.55
 2009 145    42    40   12.0      3   0.50    352     54      0    137    406    406      0    0.0  0.000      0      0  0.000  0.000  0.000  0.000  0.000  0.000  0.000   3.06   0.00   0.00      0      0    142.6   0.20   0.00   0.98    0.59    0.68    0.57    0.22    0.08    0.01      0      0      0       0      12 20.50
 2009 146    43    41   12.0      3   0.58    400     75      0    140    475    475      0    0.0  0.000      0      0  0.000  0.000  0.000  0.000  0.000  0.000  0.000   2.94   0.00   0.00      0      0    144.7   0.23   0.00   1.00    0.60    0.69    0.57    0.23    0.08    0.01      0      0      0       0      12 20.64
 2009 147    44    42   12.0      3   0.67    458    104      0    144    562    562      0    0.0  0.000      0      0  0.000  0.000  0.000  0.000  0.000  0.000  0.000   2.90   0.00   0.00      0      0    146.1   0.26   0.00   1.00    0.61    0.70    0.58    0.24    0.09    0.02      0      0      0       0      13 21.07
 2009 148    45    43   13.0      3   0.73    501    147      0    148    648    648      0    0.0  0.000      0      0  0.000  0.301  0.000  0.000  0.000  0.000  0.000   2.87   0.00   0.00      0      0    146.6   0.29   0.00   1.00    0.62    0.72    0.59    0.25    0.09    0.02      0      0      0       0      14 20.69
 2009 149    46    44   13.0      3   0.78    531    194      0    152    725    725      0    0.0  0.000      0      0  0.091  0.394  0.000  0.000  0.000  0.000  0.000   2.87   0.00   0.00      0      0    146.1   0.31   0.00   1.00    0.63    0.73    0.60    0.25    0.10    0.02      0      0      0       0      14 19.15
 2009 150    47    45   13.0      3   0.81    551    232      0    154    783    783      0    0.0  0.000      0      0  0.000  0.241  0.000  0.000  0.000  0.000  0.000   2.81   0.00   0.00      0      0    146.2   0.32   0.00   1.00    0.63    0.73    0.61    0.26    0.10    0.03      0      0      0       0      15 19.45
 2009 151    48    46   14.0      3   0.82    569    272      0    157    841    841      0    0.0  0.000      0      0  0.387  0.592  0.000  0.000  0.000  0.000  0.000   2.90   0.00   0.00      0      0    143.4   0.32   0.00   1.00    0.62    0.74    0.61    0.27    0.11    0.03      0      0      0       0      16 19.85
 2009 152    49    47   14.0      3   0.82    584    309      0    159    894    894      0    0.0  0.000      0      0  0.488  0.659  0.000  0.000  0.000  0.000  0.000   2.90   0.00   0.00      0      0    140.0   0.32   0.00   1.00    0.62    0.75    0.62    0.27    0.11    0.03      0      0      0       0      17 20.20
 2009 153    50    48   14.0      3   0.81    596    344      0    161    941    941      0    0.0  0.000      0      0  0.518  0.679  0.000  0.000  0.000  0.000  0.000   2.86   0.00   0.00      0      0    136.5   0.32   0.00   1.00    0.62    0.75    0.62    0.28    0.11    0.03      0      0      0       0      17 20.89
 2009 154    51    49   14.0      3   0.80    607    377      0    162    984    984      0    0.0  0.000      0      0  0.601  0.734  0.000  0.000  0.000  0.000  0.000   2.86   0.00   0.00      0      0    132.6   0.32   0.00   1.00    0.61    0.76    0.62    0.28    0.12    0.04      0      0      0       0      18 20.50
 2009 155    52    50   15.0      3   0.80    617    408      0    164   1025   1025      0    0.0  0.000      0      0  0.553  0.703  0.000  0.000  0.000  0.000  0.000   2.78   0.00   0.00      0      0    129.1   0.32   0.00   1.00    0.61    0.76    0.63    0.28    0.12    0.04      0      0      0       0      19 19.85
 2009 156    53    51   15.0      3   0.79    625    437      0    165   1062   1062      0    0.0  0.000      0      0  0.476  0.651  0.000  0.000  0.000  0.000  0.000   2.71   0.00   0.00      0      0    126.2   0.32   0.00   1.00    0.60    0.77    0.63    0.29    0.12    0.04      0      0      0       0      20 19.90
 2009 157    54    52   15.0      3   0.78    633    465      0    166   1098   1098      0    0.0  0.000      0      0  0.562  0.708  0.000  0.000  0.000  0.000  0.000   2.70   0.00   0.00      0      0    122.9   0.32   0.00   1.00    0.60    0.77    0.63    0.29    0.12    0.04      0      0      0       0      21 19.85
 2009 158    55    53   15.0      3   0.76    640    490      0    167   1130   1130      0    0.0  0.000      0      0  0.640  0.760  0.000  0.000  0.000  0.000  0.000   2.70   0.00   0.00      0      0    119.2   0.32   0.00   1.00    0.60    0.77    0.63    0.29    0.12    0.04      0      0      0       0      22 20.96
 2009 159    56    54   16.0      3   0.74    646    514      0    168   1160   1161      0    0.0  0.000      0      0  0.683  0.789  0.000  0.000  0.000  0.000  0.000   2.68   0.00   0.00      0      0    115.3   0.32   0.00   1.00    0.59    0.77    0.63    0.29    0.13    0.04      0      0      0       0      22 20.75
 2009 160    57    55   16.0      3   0.73    651    538      0    169   1189   1190      0    0.0  0.000      1      0  0.694  0.796  0.000  0.000  0.000  0.000  0.000   2.65   0.00   0.00      0      1    111.5   0.32   0.00   1.00    0.59    0.77    0.64    0.29    0.13    0.04      0      0      0       0      23 19.70
 2009 161    58    56   16.0      3   0.71    657    561      0    170   1217   1219      0    0.0  0.000      1      0  0.559  0.706  0.000  0.000  0.000  0.000  0.000   2.59   0.00   0.00      0      1    108.7   0.32   0.00   1.00    0.59    0.78    0.64    0.30    0.13    0.04      0      0      0       0      23 18.85
 2009 162    59    57   16.0      3   0.71    662    582      0    170   1244   1245      0    0.0  0.000      2      0  0.433  0.622  0.000  0.000  0.000  0.000  0.000   2.53   0.00   0.00      0      2    106.6   0.32   0.00   1.00    0.59    0.78    0.64    0.30    0.13    0.05      0      0      0       0      23 19.45
 2009 163    60    58   17.0      3   0.72    673    633      0    173   1307   1310      0    0.0  0.000      3      0  0.000  0.000  0.000  0.000  0.000  0.000  0.000   2.43   0.00   0.00      0      3    107.2   0.32   0.00   1.00    0.59    0.78    0.64    0.30    0.14    0.05      0      0      0       0      24 17.05
 2009 164    61    59   17.0      3   0.73    681    668      0    174   1349   1353      0    0.0  0.000      4      0  0.000  0.000  0.000  0.000  0.000  0.000  0.000   2.41   0.00   0.00      0      4    107.6   0.32   0.00   1.00    0.60    0.79    0.65    0.30    0.14    0.05      0      0      0       0      25 19.50
 2009 165    62    60   17.0      3   0.75    693    718      0    177   1410   1417      0    0.0  0.000      6      0  0.000  0.000  0.000  0.000  0.000  0.000  0.000   2.38   0.00   0.00      0      6    108.2   0.32   0.00   1.00    0.60    0.79    0.65    0.31    0.14    0.06      0      0      0       0      26 20.05
 2009 166    63    61   17.0      3   0.78    712    793      0    182   1504   1520      0    0.0  0.000     16      0  0.000  0.000  0.000  0.000  0.000  0.000  0.000   2.37   0.00   0.01      0     16    109.0   0.32   0.00   1.00    0.61    0.81    0.66    0.32    0.15    0.06      0      0      0       0      27 17.95
 2009 167    64    62   17.0      3   0.79    721    830      0    184   1551   1569      0    0.0  0.000     18      0  0.000  0.000  0.000  0.000  0.000  0.000  0.000   2.33   0.00   0.01      0     18    109.4   0.32   0.00   1.00    0.62    0.81    0.67    0.32    0.16    0.07      0      0      0       0      28 19.15
 2009 168    65    63   17.0      3   0.81    733    878      0    187   1611   1635      0    0.0  0.000     25      0  0.000  0.000  0.000  0.000  0.000  0.000  0.000   2.31   0.00   0.01      0     25    109.9   0.32   0.00   1.00    0.62    0.81    0.67    0.32    0.16    0.07      0      0      0       0      29 20.00
 2009 169    66    64   17.0      3   0.83    753    946      0    192   1699   1743      0    0.0  0.000     45      0  0.000  0.000  0.000  0.000  0.000  0.000  0.000   2.31   0.00   0.03      0     45    110.7   0.33   0.00   1.00    0.64    0.83    0.69    0.33    0.17    0.08      0      0      0       0      29 19.85
 2009 170    67    65   17.0      3   0.86    769   1001      0    196   1770   1832      0    0.0  0.000     61      0  0.000  0.008  0.000  0.000  0.000  0.000  0.000   2.28   0.00   0.03      0     61    111.3   0.34   0.00   1.00    0.65    0.84    0.70    0.34    0.17    0.08      0      0      0       0      30 19.35
 2009 171    68    66   17.0      3   0.88    784   1049      0    199   1834   1913      0    0.0  0.000     79      0  0.000  0.000  0.000  0.000  0.000  0.000  0.000   2.25   0.00   0.04      0     79    111.8   0.34   0.00   1.00    0.65    0.84    0.70    0.35    0.18    0.09      0      0      0       0      31 17.30
 2009 172    69    67   17.0      4   0.88    772   1067      0    200   1839   1952      0    0.0  0.000    113      0  0.000  0.000  0.000  0.000  0.000  0.000  0.000   2.26   0.00   0.06      0    113    113.6   0.34   0.00   1.00    0.66    0.84    0.71    0.35    0.18    0.09      0      0      0       0      32 19.75
 2009 173    70    68   17.0      4   0.88    759   1094      0    204   1853   2033      0    0.0  0.000    180      0  0.000  0.000  0.000  0.000  0.000  0.000  0.000   2.25   0.00   0.09      0    180    115.6   0.34   0.00   1.00    0.66    0.85    0.71    0.36    0.19    0.09      0      0      0       0      32 19.80
 2009 174    71    69   17.0      4   0.88    745   1119      0    207   1864   2123      0    0.0  0.000    259      0  0.000  0.000  0.000  0.000  0.000  0.000  0.000   2.23   0.00   0.12      0    259    117.8   0.34   0.00   1.00    0.67    0.86    0.72    0.36    0.19    0.10      0      0      0       0      32 18.00
 2009 175    72    70   17.0      4   0.88    730   1129      0    208   1859   2160      0    0.0  0.000    301      0  0.000  0.000  0.000  0.000  0.000  0.000  0.000   2.24   0.00   0.14      0    301    120.2   0.34   0.00   1.00    0.67    0.86    0.72    0.37    0.19    0.10      0      0      0       0      32 18.75
 2009 176    73    71   17.0      4   0.88    713   1141      0    210   1854   2205      0    0.0  0.000    351      0  0.000  0.000  0.000  0.000  0.000  0.000  0.000   2.24   0.00   0.16      0    351    123.0   0.34   0.00   1.00    0.67    0.86    0.73    0.37    0.20    0.10      0      0      0       0      32 18.80
 2009 177    74    72   17.0      4   0.88    696   1151      0    212   1847   2250      0    0.0  0.000    403      0  0.000  0.000  0.000  0.000  0.000  0.000  0.000   2.25   0.00   0.18      0    403    126.0   0.34   0.00   1.00    0.68    0.86    0.73    0.37    0.20    0.11      0      0      0       0      32 18.70
 2009 178    75    73   17.0      4   0.88    678   1162      0    214   1839   2305      0    0.0  0.000    466      0  0.000  0.000  0.000  0.000  0.000  0.000  0.000   2.26   0.00   0.20      0    466    129.4   0.34   0.00   1.00    0.68    0.87    0.73    0.38    0.20    0.11      0      0      0       0      32 16.70
 2009 179    76    74   17.0      4   0.88    658   1169      0    215   1827   2337      0    0.0  0.000    510      0  0.000  0.000  0.000  0.000  0.000  0.000  0.000   2.28   0.00   0.22      0    510    133.2   0.34   0.00   1.00    0.68    0.87    0.74    0.38    0.21    0.11      0      0      0       0      32 17.80
 2009 180    77    75   17.0      4   0.88    638   1177      0    216   1815   2376      0    0.0  0.000    561      0  0.000  0.000  0.000  0.000  0.000  0.000  0.000   2.29   0.00   0.24      0    561    137.5   0.34   0.00   1.00    0.68    0.87    0.74    0.38    0.21    0.12      0      0      0       0      32 18.20
 2009 181    78    76   17.0      5   0.88    638   1169     94    215   1807   2461    892   10.5  0.038    654      9  0.000  0.000  0.000  0.000  0.000  0.000  0.000   2.21  14.31   0.27      0    654    137.5   0.34   0.00   1.00    0.68    0.87    0.74    0.38    0.21    0.12      0      0      0       0      32 18.15
 2009 182    79    77   17.0      5   0.88    638   1160    186    214   1798   2545    892   20.9  0.073    747      9  0.000  0.000  0.000  0.000  0.000  0.000  0.000   2.13  24.92   0.29      0    747    137.5   0.34   0.00   1.00    0.68    0.87    0.74    0.38    0.21    0.12      0      0      0       0      32 19.10
 2009 183    80    78   17.0      5   0.88    638   1172    272    219   1810   2643    892   30.5  0.103    833      9  0.000  0.000  0.000  0.000  0.000  0.000  0.000   2.04  32.68   0.32      0    833    137.5   0.34   0.00   1.00    0.69    0.88    0.75    0.39    0.22    0.12      0      0      0       0      32 19.65
 2009 184    81    79   17.0      5   0.88    638   1177    366    224   1815   2741    892   41.0  0.133    926      9  0.000  0.024  0.000  0.000  0.000  0.000  0.000   1.94  39.48   0.34      0    926    137.5   0.34   0.00   1.00    0.70    0.89    0.76    0.40    0.23    0.13      0      0      0       0      32 18.90
 2009 185    82    80   17.0      5   0.88    638   1167    459    223   1805   2825    892   51.5  0.163   1020      9  0.000  0.000  0.000  0.000  0.000  0.000  0.000   1.86  45.04   0.36      0   1020    137.5   0.34   0.00   1.00    0.70    0.89    0.76    0.40    0.23    0.13      0      0      0       0      32 18.90
 2009 186    83    81   17.0      5   0.88    638   1177    553    228   1815   2929    892   62.0  0.189   1114      9  0.000  0.255  0.000  0.000  0.000  0.000  0.000   1.76  49.66   0.38      0   1114    137.5   0.34   0.00   1.00    0.70    0.90    0.77    0.42    0.24    0.14      0      0      0       0      32 18.95
 2009 187    84    82   17.0      5   0.88    638   1177    644    228   1815   3019    892   72.2  0.213   1204      9  0.000  0.193  0.000  0.000  0.000  0.000  0.000   1.67  53.45   0.40      0   1204    137.5   0.34   0.00   1.00    0.69    0.89    0.77    0.42    0.24    0.14      0      0      0       0      32 19.25
 2009 188    85    83   17.0      5   0.88    638   1175    737    227   1813   3111    892   82.7  0.237   1298      9  0.000  0.215  0.000  0.000  0.000  0.000  0.000   1.62  56.81   0.42      0   1298    137.5   0.34   0.00   1.00    0.69    0.89    0.77    0.42    0.24    0.14      0      0      0       0      34 17.10
 2009 189    86    84   17.0      5   0.88    638   1138    831    226   1776   3168    892   93.2  0.262   1392      9  0.000  0.000  0.000  0.000  0.000  0.000  0.000   1.59  59.71   0.44      0   1392    137.5   0.34   0.00   1.00    0.69    0.89    0.77    0.42    0.24    0.14      0      0      0       0      35 17.65
 2009 190    87    85   17.0      5   0.88    638   1103    925    224   1741   3226    892  103.7  0.287   1485      9  0.000  0.003  0.000  0.000  0.000  0.000  0.000   1.56  62.25   0.46      0   1485    137.5   0.34   0.00   1.00    0.69    0.89    0.77    0.42    0.24    0.14      0      0      0       0      36 17.40
 2009 191    88    86   17.0      5   0.88    638   1075   1018    223   1713   3291    892  114.2  0.309   1579      9  0.000  0.169  0.000  0.000  0.000  0.000  0.000   1.53  64.49   0.48      0   1579    137.5   0.34   0.00   1.00    0.69    0.89    0.77    0.42    0.24    0.14      0      0      0       0      37 17.45
 2009 192    89    87   17.0      5   0.88    638   1043   1112    222   1681   3354    892  124.7  0.332   1672      9  0.000  0.110  0.000  0.000  0.000  0.000  0.000   1.50  66.48   0.50      0   1672    137.5   0.34   0.00   1.00    0.69    0.89    0.77    0.42    0.24    0.14      0      0      0       0      38 17.65
 2009 193    90    88   17.0      5   0.87    638   1021   1202    221   1660   3423    892  134.8  0.351   1763      9  0.061  0.374  0.000  0.000  0.000  0.000  0.000   1.47  68.20   0.52      0   1763    137.1   0.34   0.00   1.00    0.69    0.89    0.77    0.42    0.24    0.14      0      0      0       0      39 18.55
 2009 194    91    89   17.0      5   0.86    638   1009   1277    220   1647   3485    892  143.2  0.367   1838      9  0.363  0.576  0.000  0.000  0.000  0.000  0.000   1.45  69.50   0.53      0   1838    134.6   0.34   0.00   1.00    0.69    0.89    0.77    0.42    0.24    0.14      0      0      0       0      40 18.05
 2009 195    92    90   17.0      5   0.85    638    982   1360    219   1620   3541    892  152.5  0.384   1921      9  0.201  0.468  0.000  0.000  0.000  0.000  0.000   1.41  70.81   0.54      0   1921    133.2   0.34   0.00   1.00    0.69    0.89    0.77    0.42    0.24    0.14      0      0      0       0      41 19.05
 2009 196    93    91   17.0      5   0.82    638    972   1422    218   1610   3592    892  159.4  0.396   1982      9  0.593  0.729  0.000  0.000  0.000  0.000  0.000   1.41  71.72   0.55      0   1982    129.3   0.34   0.00   1.00    0.69    0.89    0.77    0.42    0.24    0.14      0      0      0       0      42 19.20
 2009 197    94    92   17.0      5   0.80    638    956   1486    217   1594   3642    892  166.7  0.408   2047      9  0.558  0.706  0.000  0.000  0.000  0.000  0.000   1.38  72.61   0.56      0   2047    125.7   0.34   0.00   1.00    0.69    0.89    0.77    0.42    0.24    0.14      0      0      0       0      44 18.00
 2009 198    95    93   17.0      5   0.80    638    919   1573    216   1557   3691    892  176.4  0.426   2133      9  0.141  0.428  0.000  0.000  0.000  0.000  0.000   1.32  73.72   0.58      0   2133    124.8   0.34   0.00   1.00    0.69    0.89    0.77    0.42    0.24    0.14      0      0      0       0      45 18.25
 2009 199    96    94   17.0      5   0.79    638    892   1616    215   1530   3707    892  181.2  0.436   2177      9  0.235  0.490  0.000  0.000  0.000  0.000  0.000   1.29  74.25   0.59      0   2177    123.3   0.34   0.00   1.00    0.69    0.89    0.77    0.42    0.24    0.14      0      0      0       0      45 18.25
 2009 200    97    95   17.0      5   0.76    638    892   1656    213   1530   3747    892  185.7  0.442   2217      9  0.636  0.758  0.000  0.000  0.000  0.000  0.000   1.28  74.71   0.59      0   2217    119.4   0.34   0.00   1.00    0.69    0.89    0.77    0.42    0.24    0.14      0      0      0       0      46 19.55
 2009 201    98    96   17.0      5   0.74    638    892   1694    212   1530   3785    892  190.0  0.448   2255      9  0.626  0.751  0.000  0.000  0.000  0.000  0.000   1.25  75.13   0.60      0   2255    115.7   0.34   0.00   1.00    0.69    0.89    0.77    0.42    0.24    0.14      0      0      0       0      47 18.85
 2009 202    99    97   17.0      5   0.72    638    892   1730    211   1530   3821    892  194.0  0.453   2291      9  0.535  0.691  0.000  0.000  0.000  0.000  0.000   1.20  75.53   0.60      0   2291    112.6   0.34   0.00   1.00    0.69    0.89    0.77    0.42    0.24    0.14      0      0      0       0      47 18.90
 2009 203   100    98   17.0      5   0.70    638    892   1765    210   1530   3855    892  197.9  0.458   2325      9  0.635  0.757  0.000  0.000  0.000  0.000  0.000   1.19  75.89   0.60      0   2325    109.0   0.34   0.00   1.00    0.69    0.89    0.77    0.42    0.24    0.14      0      0      0       0      48 18.80
 2009 204   101    99   17.0      5   0.68    638    892   1797    209   1530   3888    892  201.5  0.462   2357      9  0.506  0.671  0.000  0.000  0.000  0.000  0.000   1.15  76.22   0.61      0   2357    106.2   0.34   0.00   1.00    0.69    0.89    0.77    0.42    0.24    0.14      0      0      0       0      48 19.40
 2009 205   102   100   17.0      5   0.66    638    892   1828    208   1530   3918    892  205.0  0.466   2388      9  0.565  0.711  0.000  0.000  0.000  0.000  0.000   1.12  76.53   0.61      0   2388    103.2   0.34   0.00   1.00    0.69    0.89    0.77    0.42    0.24    0.14      0      0      0       0      49 19.25
 2009 206   103   101   17.0      5   0.66    638    892   1884    207   1530   3974    892  211.2  0.474   2444      9  0.000  0.000  0.000  0.000  0.000  0.000  0.000   1.08  77.06   0.62      0   2444    103.2   0.34   0.00   1.00    0.69    0.89    0.77    0.42    0.24    0.14      0      0      0       0      50 17.35
 2009 207   104   102   17.0      5   0.65    638    892   1923    206   1530   4013    892  215.6  0.479   2483      9  0.295  0.531  0.000  0.000  0.000  0.000  0.000   1.06  77.43   0.62      0   2483    101.7   0.34   0.00   1.00    0.69    0.89    0.77    0.42    0.24    0.14      0      0      0       0      51 17.65
 2009 208   105   103   17.0      5   0.62    638    892   1955    205   1530   4046    892  219.3  0.483   2516      9  0.303  0.536  0.000  0.000  0.000  0.000  0.000   1.04  77.72   0.62      0   2516     97.2   0.34   0.00   1.00    0.69    0.89    0.77    0.42    0.24    0.14      0      0      0       0      52 16.85
 2009 209   106   104   17.0      5   0.58    638    892   1984    204   1530   4075    892  222.5  0.487   2545      9  0.336  0.558  0.000  0.000  0.000  0.000  0.000   1.01  77.97   0.62      0   2545     90.1   0.34   0.00   1.00    0.69    0.89    0.77    0.42    0.24    0.14      0      0      0       0      53 16.75
 2009 210   107   105   17.0      5   0.52    638    892   2010    203   1530   4101    892  225.4  0.490   2571      9  0.577  0.718  0.000  0.000  0.000  0.000  0.000   1.00  78.19   0.63      0   2571     82.3   0.34   0.00   1.00    0.69    0.89    0.77    0.42    0.24    0.14      0      0      0       0      54 17.60
 2009 211   108   106   17.0      5   0.52    638    892   2010    203   1530   4101    892  225.4  0.490   2571      9  0.522  0.682  0.000  0.000  0.000  0.000  0.000   1.00  78.19   0.63      0   2571     82.3   0.34   0.00   1.00    0.69    0.89    0.77    0.42    0.24    0.14      0      0      0       0      54 17.60
 2009 212   109   107   17.0      5   0.52    638    892   2010    203   1530   4101    892  225.4  0.490   2571      9  0.477  0.652  0.000  0.000  0.000  0.000  0.000   1.00  78.19   0.63      0   2571     82.3   0.34   0.00   1.00    0.69    0.89    0.77    0.42    0.24    0.14      0      0      0       0      54 17.70
 2009 213   110   108   17.0      5   0.52    638    892   2010    203   1530   4101    892  225.4  0.490   2571      9  0.000  0.652  0.000  0.000  0.000  0.000  0.000   1.00  78.19   0.63      0   2571     82.3   0.34   0.00   1.00    0.69    0.89    0.77    0.42    0.24    0.14      0      0      0       0      54  0.00
 2009 214   111   109   17.0      5   0.52    638    892   2010    203   1530   4101    892  225.4  0.490   2571      9  0.000  0.652  0.000  0.000  0.000  0.000  0.000   1.00  78.19   0.63      0   2571     82.3   0.34   0.00   1.00    0.69    0.89    0.77    0.42    0.24    0.14      0      0      0       0      54 18.10
 2009 215   112   110   17.0      5   0.52    638    892   2010    203   1530   4101    892  225.4  0.490   2571      9  0.000  0.652  0.000  0.000  0.000  0.000  0.000   1.00  78.19   0.63      0   2571     82.3   0.34   0.00   1.00    0.69    0.89    0.77    0.42    0.24    0.14      0      0      0       0      54 18.20
 2009 216   113   111   17.0      5   0.52    638    892   2010    203   1530   4101    892  225.4  0.490   2571      9  0.000  0.652  0.000  0.000  0.000  0.000  0.000   1.00  78.19   0.63      0   2571     82.3   0.34   0.00   1.00    0.69    0.89    0.77    0.42    0.24    0.14      0      0      0       0      54 18.35
 2009 217   114   112   17.0      5   0.52    638    892   2010    203   1530   4101    892  225.4  0.490   2571      9  0.000  0.652  0.000  0.000  0.000  0.000  0.000   1.00  78.19   0.63      0   2571     82.3   0.34   0.00   1.00    0.69    0.89    0.77    0.42    0.24    0.14      0      0      0       0      54 17.65
 2009 218   115   113   17.0      5   0.52    638    892   2010    203   1530   4101    892  225.4  0.490   2571      9  0.000  0.652  0.000  0.000  0.000  0.000  0.000   1.00  78.19   0.63      0   2571     82.3   0.34   0.00   1.00    0.69    0.89    0.77    0.42    0.24    0.14      0      0      0       0      54 18.10
 2009 219   116   114   17.0      5   0.52    638    892   2010    203   1530   4101    892  225.4  0.490   2571      9  0.000  0.652  0.000  0.000  0.000  0.000  0.000   1.00  78.19   0.63      0   2571     82.3   0.34   0.00   1.00    0.69    0.89    0.77    0.42    0.24    0.14      0      0      0       0      54 16.75
 2009 220   117   115   17.0      5   0.52    638    892   2010    203   1530   4101    892  225.4  0.490   2571      9  0.000  0.652  0.000  0.000  0.000  0.000  0.000   1.00  78.19   0.63      0   2571     82.3   0.34   0.00   1.00    0.69    0.89    0.77    0.42    0.24    0.14      0      0      0       0      54 18.05
 2009 221   118   116   17.0      5   0.52    638    892   2010    203   1530   4101    892  225.4  0.490   2571      9  0.000  0.652  0.000  0.000  0.000  0.000  0.000   1.00  78.19   0.63      0   2571     82.3   0.34   0.00   1.00    0.69    0.89    0.77    0.42    0.24    0.14      0      0      0       0      54 19.50
 2009 222   119   117   17.0      5   0.52    638    892   2010    203   1530   4101    892  225.4  0.490   2571      9  0.000  0.652  0.000  0.000  0.000  0.000  0.000   1.00  78.19   0.63      0   2571     82.3   0.34   0.00   1.00    0.69    0.89    0.77    0.42    0.24    0.14      0      0      0       0      54 17.95
 2009 223   120   118   17.0      5   0.52    638    892   2010    203   1530   4101    892  225.4  0.490   2571      9  0.000  0.652  0.000  0.000  0.000  0.000  0.000   1.00  78.19   0.63      0   2571     82.3   0.34   0.00   1.00    0.69    0.89    0.77    0.42    0.24    0.14      0      0      0       0      54 18.00
 2009 224   121   119   17.0      5   0.52    638    892   2010    203   1530   4101    892  225.4  0.490   2571      9  0.000  0.652  0.000  0.000  0.000  0.000  0.000   1.00  78.19   0.63      0   2571     82.3   0.34   0.00   1.00    0.69    0.89    0.77    0.42    0.24    0.14      0      0      0       0      54 17.90
 2009 225   122   120   17.0      5   0.52    638    892   2010    203   1530   4101    892  225.4  0.490   2571      9  0.000  0.652  0.000  0.000  0.000  0.000  0.000   1.00  78.19   0.63      0   2571     82.3   0.34   0.00   1.00    0.69    0.89    0.77    0.42    0.24    0.14      0      0      0       0      54 17.75
 2009 226   123   121   17.0      5   0.52    638    892   2010    203   1530   4101    892  225.4  0.490   2571      9  0.000  0.652  0.000  0.000  0.000  0.000  0.000   1.00  78.19   0.63      0   2571     82.3   0.34   0.00   1.00    0.69    0.89    0.77    0.42    0.24    0.14      0      0      0       0      54 17.85
 2009 227   124   122   17.0      5   0.52    638    892   2010    203   1530   4101    892  225.4  0.490   2571      9  0.000  0.652  0.000  0.000  0.000  0.000  0.000   1.00  78.19   0.63      0   2571     82.3   0.34   0.00   1.00    0.69    0.89    0.77    0.42    0.24    0.14      0      0      0       0      54 18.35
 2009 228   125   123   17.0      5   0.52    638    892   2010    203   1530   4101    892  225.4  0.490   2571      9  0.000  0.652  0.000  0.000  0.000  0.000  0.000   1.00  78.19   0.63      0   2571     82.3   0.34   0.00   1.00    0.69    0.89    0.77    0.42    0.24    0.14      0      0      0       0      54 18.25
 2009 229   126   124   17.0      5   0.52    638    892   2010    203   1530   4101    892  225.4  0.490   2571      9  0.000  0.652  0.000  0.000  0.000  0.000  0.000   1.00  78.19   0.63      0   2571     82.3   0.34   0.00   1.00    0.69    0.89    0.77    0.42    0.24    0.14      0      0      0       0      54 17.35
 2009 230   127   125   17.0      5   0.52    638    892   2010    203   1530   4101    892  225.4  0.490   2571      9  0.000  0.652  0.000  0.000  0.000  0.000  0.000   1.00  78.19   0.63      0   2571     82.3   0.34   0.00   1.00    0.69    0.89    0.77    0.42    0.24    0.14      0      0      0       0      54 19.00
 2009 231   128   126   17.0      5   0.52    638    892   2010    203   1530   4101    892  225.4  0.490   2571      9  0.000  0.652  0.000  0.000  0.000  0.000  0.000   1.00  78.19   0.63      0   2571     82.3   0.34   0.00   1.00    0.69    0.89    0.77    0.42    0.24    0.14      0      0      0       0      54 18.35
 2009 232   129   127   17.0      5   0.52    638    892   2010    203   1530   4101    892  225.4  0.490   2571      9  0.000  0.652  0.000  0.000  0.000  0.000  0.000   1.00  78.19   0.63      0   2571     82.3   0.34   0.00   1.00    0.69    0.89    0.77    0.42    0.24    0.14      0      0      0       0      54 17.30
 2009 233   130   128   17.0      5   0.52    638    892   2010    203   1530   4101    892  225.4  0.490   2571      9  0.000  0.652  0.000  0.000  0.000  0.000  0.000   1.00  78.19   0.63      0   2571     82.3   0.34   0.00   1.00    0.69    0.89    0.77    0.42    0.24    0.14      0      0      0       0      54 17.45
 2009 234   131   129   17.0      5   0.52    638    892   2010    203   1530   4101    892  225.4  0.490   2571      9  0.000  0.652  0.000  0.000  0.000  0.000  0.000   1.00  78.19   0.63      0   2571     82.3   0.34   0.00   1.00    0.69    0.89    0.77    0.42    0.24    0.14      0      0      0       0      54 18.80
 2009 235   132   130   17.0      5   0.52    638    892   2010    203   1530   4101    892  225.4  0.490   2571      9  0.000  0.652  0.000  0.000  0.000  0.000  0.000   1.00  78.19   0.63      0   2571     82.3   0.34   0.00   1.00    0.69    0.89    0.77    0.42    0.24    0.14      0      0      0       0      54 18.95
 2009 236   133   131   17.0      5   0.52    638    892   2010    203   1530   4101    892  225.4  0.490   2571      9  0.000  0.652  0.000  0.000  0.000  0.000  0.000   1.00  78.19   0.63      0   2571     82.3   0.34   0.00   1.00    0.69    0.89    0.77    0.42    0.24    0.14      0      0      0       0      54 19.00
 2009 237   134   132   17.0      5   0.52    638    892   2010    203   1530   4101    892  225.4  0.490   2571      9  0.000  0.652  0.000  0.000  0.000  0.000  0.000   1.00  78.19   0.63      0   2571     82.3   0.34   0.00   1.00    0.69    0.89    0.77    0.42    0.24    0.14      0      0      0       0      54 17.90
 2009 238   135   133   17.0      5   0.52    638    892   2010    203   1530   4101    892  225.4  0.490   2571      9  0.000  0.652  0.000  0.000  0.000  0.000  0.000   1.00  78.19   0.63      0   2571     82.3   0.34   0.00   1.00    0.69    0.89    0.77    0.42    0.24    0.14      0      0      0       0      54 18.65
 2009 239   136   134   17.0      5   0.52    638    892   2010    203   1530   4101    892  225.4  0.490   2571      9  0.000  0.652  0.000  0.000  0.000  0.000  0.000   1.00  78.19   0.63      0   2571     82.3   0.34   0.00   1.00    0.69    0.89    0.77    0.42    0.24    0.14      0      0      0       0      54 18.25
 2009 240   137   135   17.0      5   0.52    638    892   2010    203   1530   4101    892  225.4  0.490   2571      9  0.000  0.652  0.000  0.000  0.000  0.000  0.000   1.00  78.19   0.63      0   2571     82.3   0.34   0.00   1.00    0.69    0.89    0.77    0.42    0.24    0.14      0      0      0       0      54 18.90
 2009 241   138   136   17.0      5   0.52    638    892   2010    203   1530   4101    892  225.4  0.490   2571      9  0.000  0.652  0.000  0.000  0.000  0.000  0.000   1.00  78.19   0.63      0   2571     82.3   0.34   0.00   1.00    0.69    0.89    0.77    0.42    0.24    0.14      0      0      0       0      54 17.70
 2009 242   139   137   17.0      5   0.52    638    892   2010    203   1530   4101    892  225.4  0.490   2571      9  0.000  0.652  0.000  0.000  0.000  0.000  0.000   1.00  78.19   0.63      0   2571     82.3   0.34   0.00   1.00    0.69    0.89    0.77    0.42    0.24    0.14      0      0      0       0      54 18.05
 2009 243   140   138   17.0      5   0.52    638    892   2010    203   1530   4101    892  225.4  0.490   2571      9  0.000  0.652  0.000  0.000  0.000  0.000  0.000   1.00  78.19   0.63      0   2571     82.3   0.34   0.00   1.00    0.69    0.89    0.77    0.42    0.24    0.14      0      0      0       0      54 18.30
 2009 244   141   139   17.0      5   0.52    638    892   2010    203   1530   4101    892  225.4  0.490   2571      9  0.000  0.652  0.000  0.000  0.000  0.000  0.000   1.00  78.19   0.63      0   2571     82.3   0.34   0.00   1.00    0.69    0.89    0.77    0.42    0.24    0.14      0      0      0       0      54 17.75
 2009 245   142   140   17.0      5   0.52    638    892   2010    203   1530   4101    892  225.4  0.490   2571      9  0.000  0.652  0.000  0.000  0.000  0.000  0.000   1.00  78.19   0.63      0   2571     82.3   0.34   0.00   1.00    0.69    0.89    0.77    0.42    0.24    0.14      0      0      0       0      54 18.95
 2009 246   143   141   17.0      5   0.52    638    892   2010    203   1530   4101    892  225.4  0.490   2571      9  0.000  0.652  0.000  0.000  0.000  0.000  0.000   1.00  78.19   0.63      0   2571     82.3   0.34   0.00   1.00    0.69    0.89    0.77    0.42    0.24    0.14      0      0      0       0      54 18.70
 2009 247   144   142   17.0      5   0.52    638    892   2010    203   1530   4101    892  225.4  0.490   2571      9  0.000  0.652  0.000  0.000  0.000  0.000  0.000   1.00  78.19   0.63      0   2571     82.3   0.34   0.00   1.00    0.69    0.89    0.77    0.42    0.24    0.14      0      0      0       0      54 19.80
 2009 248   145   143   17.0      5   0.52    638    892   2010    203   1530   4101    892  225.4  0.490   2571      9  0.000  0.652  0.000  0.000  0.000  0.000  0.000   1.00  78.19   0.63      0   2571     82.3   0.34   0.00   1.00    0.69    0.89    0.77    0.42    0.24    0.14      0      0      0       0      54 18.90
 2009 249   146   144   17.0      5   0.52    638    892   2010    203   1530   4101    892  225.4  0.490   2571      9  0.000  0.652  0.000  0.000  0.000  0.000  0.000   1.00  78.19   0.63      0   2571     82.3   0.34   0.00   1.00    0.69    0.89    0.77    0.42    0.24    0.14      0      0      0       0      54 19.30
 2009 250   147   145   17.0      5   0.52    638    892   2010    203   1530   4101    892  225.4  0.490   2571      9  0.000  0.652  0.000  0.000  0.000  0.000  0.000   1.00  78.19   0.63      0   2571     82.3   0.34   0.00   1.00    0.69    0.89    0.77    0.42    0.24    0.14      0      0      0       0      54 19.35
