*SOIL INORGANIC N BALANCE

*DSSAT Cropping System Model Ver. 4.7.2.000 -release      OCT 15, 2021; 17:59:34
                                                                                
*RUN   1        :             CSM335_date_1 MZCER047 ITSA1301    1              
 MODEL          : MZCER047 - Maize                                              
 EXPERIMENT     : ITSA1301 SG CALIBRATION SETUP OF SORGHUM SOWING DATES         
 DATA PATH      :                                                               
 TREATMENT  1   :             CSM335_date_1 MZCER047                            
  


!SOIL INORGANIC N BALANCE                         Initial               Final
!                                                Year/Doy            Year/Doy
!                                                2009/104            2009/250
!                                               (kg[N]/ha)          (kg[N]/ha)
! Soil N state variables:
!   Soil NO3                                        28.67              180.27
!   Soil NH4                                         8.91                4.39
!   Soil Urea                                        0.00                0.00
!   Soil N gases                                     0.00                0.17

! N additions:
!   Fertilizer N                                    80.00
!   Mineralized N                                  226.72

! N subtractions:
!   N immobilized                                                       83.65
!   N leached                                                           23.40
!   N loss to tile drainage                                              0.00
!   N Uptake From Soil                                                  51.86
!   NH3 loss                                                             0.00
!   N2O loss                                                             0.25
!   N2 loss                                                              0.21
!   NO loss                                                              0.11

!   Total N balance                                344.30              344.30
!   Balance                                                            -0.000
