*Soil Inorganic Nitrogen daily output file

*DSSAT Cropping System Model Ver. 4.7.2.000 -release      OCT 15, 2021; 17:59:34
                                                                                
*RUN   1        :             CSM335_date_1 MZCER047 ITSA1301    1              
 MODEL          : MZCER047 - Maize                                              
 EXPERIMENT     : ITSA1301 SG CALIBRATION SETUP OF SORGHUM SOWING DATES         
 DATA PATH      :                                                               
 TREATMENT  1   :             CSM335_date_1 MZCER047                            
  
!                                                    NO3 (ppm) by soil depth (cm):                   NH4 (ppm) by soil depth (cm):
!                                                     0-5    5-15   15-30   30-53   53-77  77-100     0-5    5-15   15-30   30-53   53-77  77-100
@YEAR DOY   DAS  NAPC  NI#M    NIAD   NITD   NHTD    NI1D    NI2D    NI3D    NI4D    NI5D    NI6D    NH1D    NH2D    NH3D    NH4D    NH5D    NH6D    NMNC    NITC    NDNC    NIMC    AMLC   NNMNC    NUCM    NLCC    TDFC
 2009 103     0     0     0    37.6   28.7    8.9    1.93    1.93    1.93    1.93    1.93    1.93    0.60    0.60    0.60    0.60    0.60    0.60    0.00    0.00    0.00    0.00    0.00    0.00    0.00    0.00    0.00
 2009 104     1     0     0    38.4   30.5    7.8    2.07    2.07    2.06    2.06    2.05    2.05    0.79    0.59    0.59    0.48    0.49    0.49    0.96    1.88    0.00    0.17    0.00    0.79    0.00    0.00    0.00
 2009 105     2     0     0    39.1   32.2    6.9    1.54    2.52    2.23    2.16    2.15    2.14    0.88    0.57    0.57    0.38    0.39    0.40    1.86    3.58    0.00    0.34    0.00    1.52    0.00    0.00    0.00
 2009 106     3     0     0    40.6   33.5    7.0    1.62    2.55    2.40    2.24    2.23    2.22    1.24    0.98    0.59    0.31    0.32    0.33    3.65    4.88    0.00    0.66    0.00    2.99    0.00    0.00    0.00
 2009 107     4     0     0    41.9   35.1    6.8    2.52    2.72    2.49    2.28    2.28    2.27    1.38    1.16    0.60    0.25    0.26    0.27    5.30    6.46    0.00    0.96    0.00    4.34    0.00    0.00    0.00
 2009 108     5     0     0    43.2   36.7    6.5    1.52    2.76    3.10    2.43    2.33    2.33    1.40    1.29    0.60    0.20    0.21    0.22    6.87    8.03    0.00    1.26    0.00    5.61    0.00    0.00    0.00
 2009 109     6     0     0    45.3   37.7    7.6    2.30    2.75    3.10    2.52    2.35    2.35    1.71    1.56    0.99    0.16    0.17    0.18    9.51    9.06    0.00    1.76    0.00    7.75    0.00    0.00    0.00
 2009 110     7     0     0    47.4   39.5    7.9    3.34    3.08    3.27    2.52    2.37    2.37    1.70    1.65    1.19    0.14    0.14    0.15   12.07   10.85    0.00    2.27    0.00    9.80    0.00    0.00    0.00
 2009 111     8     0     0    49.3   41.5    7.9    2.71    3.65    3.69    2.64    2.40    2.41    1.59    1.68    1.33    0.11    0.11    0.12   14.59   12.81    0.00    2.79    0.00   11.79    0.00    0.00    0.00
 2009 112     9     0     0    51.4   42.7    8.7    3.75    3.71    3.79    2.68    2.40    2.41    1.85    1.87    1.57    0.10    0.09    0.10   17.22   14.07    0.00    3.36    0.00   13.86    0.00    0.00    0.00
 2009 113    10     0     0    53.3   44.9    8.4    5.11    4.08    4.07    2.67    2.40    2.42    1.75    1.80    1.58    0.09    0.07    0.08   19.60   16.24    0.00    3.90    0.00   15.70    0.00    0.00    0.00
 2009 114    11     0     0    55.0   47.0    8.0    2.57    4.20    4.88    3.23    2.41    2.43    1.58    1.72    1.58    0.08    0.06    0.07   21.87   18.37    0.00    4.43    0.00   17.44    0.00    0.00    0.00
 2009 115    12     0     0    56.7   48.0    8.7    3.48    4.16    4.73    3.42    2.44    2.43    1.83    1.89    1.73    0.09    0.05    0.06   24.16   19.38    0.00    4.98    0.00   19.18    0.00    0.00    0.00
 2009 116    13     0     0    58.6   49.5    9.1    4.68    4.41    4.77    3.46    2.45    2.43    1.77    2.01    1.85    0.10    0.04    0.05   26.70   20.91    0.00    5.61    0.00   21.09    0.00    0.00    0.00
 2009 117    14     0     0    60.5   51.9    8.6    6.10    4.84    5.11    3.44    2.44    2.42    1.71    1.87    1.77    0.11    0.03    0.04   29.17   23.23    0.00    6.24    0.00   22.93    0.00    0.00    0.00
 2009 118    15     0     0    62.2   54.0    8.2    6.61    5.29    5.53    3.47    2.45    2.43    1.59    1.75    1.70    0.11    0.03    0.03   31.48   25.38    0.00    6.84    0.00   24.64    0.00    0.00    0.00
 2009 119    16     0     0    63.8   56.0    7.7    7.10    5.70    5.94    3.49    2.46    2.44    1.45    1.63    1.64    0.12    0.02    0.03   33.69   27.42    0.00    7.43    0.00   26.25    0.02    0.00    0.00
 2009 120    17     0     0    65.0   57.7    7.3    7.55    6.01    6.29    3.52    2.46    2.44    1.28    1.52    1.57    0.12    0.02    0.02   35.82   29.38    0.00    8.01    0.00   27.81    0.32    0.00    0.00
 2009 121    18     0     0    66.2   59.4    6.9    7.99    6.30    6.63    3.55    2.46    2.45    1.12    1.41    1.51    0.13    0.02    0.02   37.89   31.26    0.00    8.58    0.00   29.31    0.59    0.00    0.00
 2009 122    19     0     0    67.5   61.0    6.5    8.39    6.60    6.98    3.57    2.47    2.45    0.95    1.32    1.45    0.13    0.02    0.02   39.89   33.07    0.00    9.14    0.00   30.75    0.79    0.00    0.00
 2009 123    20     0     0    68.5   62.4    6.1    8.74    6.83    7.27    3.59    2.47    2.46    0.80    1.24    1.40    0.13    0.01    0.01   41.77   34.75    0.00    9.68    0.00   32.10    1.15    0.00    0.00
 2009 124    21    40     3   109.4   63.7   45.8    9.06    7.05    7.55    3.62    2.47    2.46   54.34    1.17    1.35    0.13    0.01    0.01   43.57   36.33    0.00   10.19    0.00   33.37    1.45    0.00    0.00
 2009 125    22    40     3   110.3   75.7   34.5   23.25    7.54    7.86    3.64    2.48    2.46   39.51    1.11    1.30    0.13    0.01    0.01   45.58   48.59    0.00   11.00    0.00   34.58    1.80    0.00    0.00
 2009 126    23    40     3   111.4   84.5   26.9   33.51    7.78    8.15    3.67    2.48    2.46   29.32    1.10    1.27    0.14    0.01    0.01   47.60   57.44    0.00   11.81    0.00   35.79    1.91    0.00    0.00
 2009 127    24    40     3   112.2   90.9   21.2   40.81    7.98    8.41    3.69    2.48    2.47   21.91    1.08    1.23    0.14    0.01    0.01   49.48   64.11    0.00   12.54    0.00   36.94    2.26    0.00    0.00
 2009 128    25    40     3   112.0   95.2   16.8   45.74    8.09    8.58    3.70    2.48    2.47   16.21    1.05    1.19    0.14    0.01    0.01   51.30   69.33    0.00   13.26    0.00   38.04    3.51    0.00    0.00
 2009 129    26    40     3   112.4   98.7   13.7   49.21    8.41    8.77    3.71    2.49    2.47   12.13    1.02    1.15    0.14    0.01    0.01   53.01   73.46    0.00   13.91    0.00   39.10    4.22    0.00    0.00
 2009 130    27    40     3   112.9  101.5   11.4   51.90    8.56    8.97    3.72    2.49    2.47    9.31    0.99    1.12    0.14    0.01    0.01   54.70   76.61    0.00   14.59    0.00   40.10    4.66    0.00    0.00
 2009 131    28    40     3   113.6  103.9    9.7   54.08    8.73    9.19    3.75    2.49    2.47    7.17    0.96    1.09    0.14    0.01    0.01   56.28   79.26    0.00   15.22    0.00   41.07    4.89    0.00    0.00
 2009 132    29    40     3   113.4  105.1    8.3   55.49    8.75    9.27    3.73    2.49    2.47    5.45    0.92    1.05    0.14    0.01    0.01   57.81   81.56    0.00   15.81    0.00   42.00    6.04    0.00    0.00
 2009 133    30    40     3   114.3  107.1    7.2   56.96    8.93    9.50    3.76    2.49    2.48    4.16    0.88    1.02    0.14    0.01    0.01   59.25   83.56    0.00   16.35    0.00   42.90    6.05    0.00    0.00
 2009 134    31    40     3   114.0  107.7    6.3   58.13    8.86    9.47    3.72    2.49    2.48    3.15    0.83    0.98    0.13    0.01    0.01   60.63   85.31    0.00   16.86    0.00   43.77    7.26    0.00    0.00
 2009 135    32    40     3   114.5  109.0    5.5   59.10    8.97    9.63    3.73    2.49    2.48    2.34    0.79    0.94    0.13    0.01    0.01   61.98   86.93    0.00   17.34    0.00   44.64    7.62    0.00    0.00
 2009 136    33    40     3   115.0  110.1    4.9   59.87    9.08    9.80    3.74    2.49    2.48    1.72    0.74    0.90    0.13    0.01    0.01   63.26   88.37    0.00   17.79    0.00   45.48    7.89    0.00    0.00
 2009 137    34    40     3   115.2  110.8    4.4   60.47    9.13    9.88    3.73    2.49    2.48    1.27    0.70    0.87    0.13    0.01    0.01   64.46   89.63    0.00   18.20    0.00   46.27    8.51    0.00    0.00
 2009 138    35    40     3   115.5  111.5    4.0   60.95    9.19    9.97    3.73    2.49    2.48    0.92    0.66    0.83    0.13    0.01    0.01   65.61   90.79    0.00   18.57    0.00   47.03    9.01    0.00    0.00
 2009 139    36    40     3   115.7  112.0    3.7   61.33    9.24   10.06    3.73    2.49    2.48    0.67    0.62    0.80    0.12    0.01    0.01   66.68   91.83    0.00   18.92    0.00   47.76    9.50    0.00    0.00
 2009 140    37    40     3   116.1  112.6    3.5   61.65    9.31   10.18    3.74    2.50    2.49    0.53    0.58    0.77    0.12    0.01    0.01   67.87   92.77    0.00   19.39    0.00   48.48    9.81    0.00    0.00
 2009 141    38    40     3   116.3  113.1    3.3   61.92    9.35   10.26    3.73    2.50    2.49    0.42    0.54    0.74    0.12    0.01    0.01   68.99   93.66    0.00   19.82    0.00   49.17   10.27    0.00    0.00
 2009 142    39    40     3   116.2  113.1    3.1   62.17    9.34   10.25    3.70    2.49    2.49    0.33    0.51    0.72    0.12    0.01    0.01   70.04   94.49    0.00   20.21    0.00   49.83   11.07    0.00    0.00
 2009 143    40    40     3   116.5  113.5    2.9   62.40    9.39   10.32    3.70    2.49    2.49    0.26    0.48    0.69    0.12    0.01    0.01   71.02   95.28    0.00   20.56    0.00   50.46   11.44    0.00    0.00
 2009 144    41    40     3   116.6  113.8    2.8   10.03   26.40    7.26    8.27    3.96    2.49    0.20    0.44    0.67    0.12    0.01    0.01   71.94   96.03    0.00   20.88    0.00   51.05   11.91    0.00    0.00
 2009 145    42    40     3   117.7  113.9    3.8   12.33   23.02    8.19    7.94    4.56    2.59    0.55    0.54    0.89    0.13    0.03    0.01   74.06   96.33    0.00   21.70    0.00   52.36   12.13    0.00    0.00
 2009 146    43    40     3   119.2  114.4    4.8   14.02   21.30    8.49    7.66    4.72    3.02    0.85    0.67    1.08    0.14    0.06    0.01   76.41   96.83    0.00   22.55    0.00   53.86   12.13    0.00    0.00
 2009 147    44    40     3   119.3  114.0    5.2   17.43   19.92    8.49    7.43    4.70    3.02    1.00    0.73    1.13    0.15    0.08    0.02   78.95   97.99    0.00   23.44    0.00   55.51   13.69    0.00    0.00
 2009 148    45    40     3   118.3  113.0    5.3   20.76   18.40    8.41    7.21    4.62    3.01    1.04    0.74    1.12    0.14    0.09    0.04   81.15   99.29    0.00   24.19    0.00   56.96   16.12    0.00    0.00
 2009 149    46    40     3   117.3  112.0    5.3   20.94   17.98    8.45    7.08    4.58    3.01    1.01    0.75    1.10    0.13    0.10    0.04   83.14  100.59    0.00   24.85    0.00   58.29   18.45    0.00    0.00
 2009 150    47    40     3   116.3  111.1    5.2   21.14   17.60    8.49    6.95    4.54    3.00    0.99    0.74    1.06    0.13    0.11    0.05   85.02  101.89    0.00   25.46    0.00   59.56   20.70    0.00    0.00
 2009 151    48    40     3   116.3  111.2    5.1   21.63   17.41    8.61    6.88    4.53    3.01    0.94    0.73    1.03    0.13    0.11    0.06   86.76  103.15    0.00   26.02    0.00   60.73   21.90    0.00    0.00
 2009 152    49    80     4   154.9  109.9   44.9   22.11   16.93    8.57    6.72    4.47    3.00   54.55    0.70    0.99    0.12    0.12    0.06   88.35  104.36    0.00   26.53    0.00   61.82   24.39    0.00    0.00
 2009 153    50    80     4   154.2  119.2   35.0   35.55   16.66    8.62    6.62    4.45    3.00   41.34    0.68    0.95    0.12    0.12    0.06   89.82  115.20    0.00   27.07    0.00   62.75   25.93    0.00    0.00
 2009 154    51    80     4   154.1  126.6   27.5   45.72   16.50    8.72    6.57    4.44    3.01   31.40    0.66    0.92    0.12    0.12    0.07   91.19  123.57    0.00   27.56    0.00   63.63   26.96    0.00    0.00
 2009 155    52    80     4   153.6  132.0   21.6   53.71   16.29    8.77    6.49    4.42    3.01   23.65    0.63    0.88    0.11    0.12    0.07   92.50  130.31    0.00   28.00    0.00   64.50   28.26    0.00    0.00
 2009 156    53    80     4   154.1  137.0   17.0   59.87   16.28    8.93    6.49    4.43    3.02   17.71    0.60    0.85    0.11    0.12    0.07   93.75  135.68    0.00   28.41    0.00   65.34   28.64    0.00    0.00
 2009 157    54    80     4   154.6  141.0   13.6   64.52   16.28    9.10    6.49    4.45    3.03   13.29    0.57    0.82    0.11    0.13    0.07   94.92  139.89    0.00   28.78    0.00   66.14   28.89    0.00    0.00
 2009 158    55    80     4   154.5  143.4   11.1   68.00   16.16    9.16    6.44    4.44    3.04   10.03    0.55    0.79    0.11    0.13    0.07   96.03  143.18    0.00   29.13    0.00   66.90   29.81    0.00    0.00
 2009 159    56    80     4   154.4  145.2    9.1   70.70   16.06    9.23    6.39    4.44    3.04    7.57    0.52    0.76    0.10    0.12    0.07   97.09  145.86    0.00   29.46    0.00   67.63   30.64    0.00    0.00
 2009 160    57    80     4   154.4  146.7    7.7   72.76   15.98    9.32    6.36    4.44    3.05    5.74    0.49    0.73    0.10    0.12    0.07   98.13  148.05    0.00   29.78    0.00   68.35   31.31    0.00    0.00
 2009 161    58    80     4   154.6  148.1    6.5   74.38   15.94    9.42    6.35    4.45    3.06    4.34    0.46    0.70    0.10    0.12    0.07   99.12  149.89    0.00   30.09    0.00   69.04   31.75    0.00    0.00
 2009 162    59    80     4   144.9  139.2    5.7    4.13   35.78   10.76    6.21    6.07    4.69    3.35    0.43    0.68    0.10    0.12    0.07  100.07  151.38    0.00   30.38    0.00   69.70   31.75   10.41    0.00
 2009 163    60    80     4   143.7  137.5    6.2    6.89   31.84   11.62    6.32    5.94    4.76    3.37    0.41    0.85    0.11    0.14    0.09  102.08  151.90    0.00   31.35    0.00   70.73   31.75   12.62    0.00
 2009 164    61    80     4   142.9  136.3    6.6    9.12   28.93   12.30    6.41    5.83    4.76    3.33    0.41    0.98    0.13    0.15    0.11  104.21  152.58    0.00   32.37    0.00   71.84   32.03   14.29    0.00
 2009 165    62    80     4   141.3  134.2    7.1   10.64   26.97   12.52    6.45    5.68    4.66    3.31    0.47    1.09    0.14    0.16    0.13  106.30  153.26    0.00   33.32    0.00   72.98   32.70   16.34    0.00
 2009 166    63    80     4   140.8  133.6    7.2    9.00   22.50   14.81    7.02    5.72    4.68    3.21    0.51    1.09    0.15    0.17    0.14  108.52  154.38    0.00   34.28    0.00   74.24   33.89   16.91    0.00
 2009 167    64    80     4   138.5  131.0    7.5   11.56   20.23   14.26    7.13    5.66    4.66    3.15    0.64    1.13    0.16    0.17    0.15  110.55  155.14    0.08   35.15    0.00   75.40   36.02   18.10    0.00
 2009 168    65    80     4   139.3  131.6    7.7   13.29   19.71   14.26    7.17    5.65    4.66    2.84    0.78    1.18    0.17    0.18    0.16  112.75  156.24    0.08   36.05    0.00   76.70   36.55   18.10    0.00
 2009 169    66    80     4   139.5  132.1    7.4   15.53   19.29   14.17    7.10    5.63    4.65    2.54    0.83    1.12    0.16    0.17    0.17  114.96  157.81    0.08   36.94    0.00   78.01   37.67   18.10    0.00
 2009 170    67    80     4   138.5  131.6    7.0    9.79   15.48   16.17    8.26    5.84    4.72    2.24    0.84    1.05    0.15    0.17    0.17  116.96  159.40    0.08   37.74    0.00   79.22   39.67   18.29    0.00
 2009 171    68    80     4   137.2  129.8    7.4   10.93   14.37   15.11    8.45    5.98    4.80    2.31    0.99    1.09    0.16    0.17    0.18  119.01  160.13    0.08   38.58    0.00   80.43   40.83   19.65    0.00
 2009 172    69    80     4   137.4  129.8    7.6   12.61   14.13   14.77    8.41    5.96    4.81    2.15    1.14    1.13    0.15    0.18    0.17  121.29  161.32    0.08   39.46    0.00   81.83   41.92   19.78    0.00
 2009 173    70    80     4   138.5  131.1    7.4   11.90   14.55   15.08    8.54    5.97    4.84    2.01    1.17    1.08    0.15    0.17    0.17  123.54  162.93    0.08   40.32    0.00   83.22   42.21   19.78    0.00
 2009 174    71    80     4   139.8  132.4    7.5    8.80   13.56   15.83    9.20    6.18    4.95    2.11    1.30    1.04    0.14    0.16    0.16  125.77  164.18    0.08   41.19    0.00   84.57   42.21   19.78    0.00
 2009 175    72    80     4   140.8  133.0    7.9    9.93   13.02   15.45    9.41    6.31    5.00    2.21    1.42    1.08    0.15    0.17    0.17  127.83  164.99    0.08   42.01    0.00   85.82   42.21   20.01    0.00
 2009 176    73    80     4   141.7  133.4    8.3    6.83   12.07   15.67   10.06    6.60    5.13    2.27    1.52    1.13    0.16    0.18    0.18  129.96  165.92    0.08   42.84    0.00   87.13   42.21   20.49    0.00
 2009 177    74    80     4   142.3  133.6    8.7    7.10   11.55   15.19   10.28    6.80    5.25    2.36    1.63    1.17    0.16    0.18    0.19  131.94  166.74    0.08   43.60    0.00   88.33   42.21   21.10    0.00
 2009 178    75    80     4   142.1  133.1    9.0    7.79   11.31   14.75   10.25    6.87    5.30    2.43    1.72    1.21    0.17    0.19    0.20  134.01  167.70    0.15   44.39    0.00   89.62   42.21   22.50    0.00
 2009 179    76    80     4   143.1  134.2    8.9    6.31   11.21   14.96   10.58    7.01    5.37    2.28    1.67    1.25    0.17    0.19    0.20  136.11  169.08    0.17   45.17    0.00   90.94   42.21   22.77    0.00
 2009 180    77    80     4   143.8  134.6    9.2    6.64   10.78   14.73   10.74    7.15    5.44    2.37    1.76    1.29    0.17    0.20    0.21  137.99  169.93    0.27   45.87    0.00   92.11   42.21   23.10    0.00
 2009 181    78    80     4   144.7  135.2    9.5    7.41   10.76   14.58   10.75    7.21    5.49    2.43    1.83    1.32    0.17    0.20    0.21  139.97  170.91    0.36   46.60    0.00   93.36   42.21   23.40    0.00
 2009 182    79    80     4   146.0  136.6    9.4    8.78   11.10   14.58   10.71    7.20    5.50    2.28    1.76    1.35    0.17    0.20    0.21  141.99  172.31    0.38   47.35    0.00   94.64   42.21   23.40    0.00
 2009 183    80    80     4   147.2  138.2    8.9   10.19   11.42   14.67   10.67    7.20    5.51    2.14    1.67    1.27    0.16    0.20    0.22  143.91  173.95    0.39   48.06    0.00   95.85   42.21   23.40    0.00
 2009 184    81    80     4   148.3  140.0    8.3   11.97   11.74   14.71   10.61    7.20    5.53    1.97    1.56    1.18    0.15    0.19    0.20  145.73  175.73    0.39   48.73    0.00   97.00   42.21   23.40    0.00
 2009 185    82    80     4   149.4  141.7    7.7   12.56   12.01   14.94   10.64    7.24    5.57    1.78    1.44    1.09    0.14    0.18    0.19  147.46  177.44    0.39   49.37    0.00   98.09   42.21   23.40    0.00
 2009 186    83    80     4   150.4  143.3    7.1   13.12   12.27   15.15   10.67    7.27    5.61    1.58    1.33    1.01    0.13    0.17    0.18  149.12  179.07    0.39   50.00    0.00   99.12   42.21   23.40    0.00
 2009 187    84    80     4   151.4  144.9    6.5   13.64   12.51   15.35   10.69    7.31    5.65    1.38    1.22    0.94    0.13    0.16    0.17  150.68  180.60    0.39   50.59    0.00  100.09   42.21   23.40    0.00
 2009 188    85    80     4   152.4  146.3    6.1   14.14   12.73   15.54   10.72    7.34    5.68    1.35    1.12    0.87    0.12    0.15    0.16  152.28  182.03    0.39   51.19    0.00  101.10   42.21   23.40    0.00
 2009 189    86    80     4   152.3  146.6    5.7   14.54   12.82   15.58   10.66    7.32    5.69    1.27    1.04    0.81    0.11    0.14    0.16  153.73  183.29    0.39   51.73    0.00  102.00   43.20   23.40    0.00
 2009 190    87    80     4   152.7  147.3    5.5   14.93   12.93   15.67   10.64    7.33    5.70    1.25    0.97    0.76    0.11    0.14    0.15  155.11  184.44    0.39   52.24    0.00  102.87   43.64   23.40    0.00
 2009 191    88    80     4   153.0  147.8    5.2   15.05   13.15   15.74   10.62    7.33    5.72    1.23    0.90    0.72    0.11    0.13    0.15  156.41  185.49    0.39   52.73    0.00  103.69   44.16   23.40    0.00
 2009 192    89    80     4   153.2  148.1    5.1   15.39   13.20   15.78   10.59    7.32    5.73    1.26    0.86    0.68    0.10    0.13    0.15  157.70  186.45    0.39   53.19    0.00  104.50   44.82   23.40    0.00
 2009 193    90    80     4   153.3  148.4    4.9   15.74   13.24   15.81   10.56    7.32    5.73    1.24    0.81    0.66    0.10    0.13    0.14  158.86  187.35    0.39   53.62    0.00  105.23   45.44   23.40    0.00
 2009 194    91    80     4   153.2  148.5    4.7   16.11   13.26   15.81   10.51    7.30    5.74    1.19    0.77    0.63    0.10    0.12    0.14  159.96  188.23    0.39   54.03    0.00  105.92   46.23   23.40    0.00
 2009 195    92    80     4   152.9  148.5    4.5   16.52   13.27   15.80   10.45    7.28    5.73    1.11    0.73    0.60    0.09    0.12    0.14  161.00  189.09    0.39   54.42    0.00  106.58   47.12   23.40    0.00
 2009 196    93    80     4   153.2  148.9    4.2   16.92   13.31   15.84   10.43    7.28    5.75    1.02    0.68    0.57    0.09    0.12    0.14  162.00  189.94    0.39   54.80    0.00  107.20   47.54   23.40    0.00
 2009 197    94    80     4   152.7  148.7    4.0   17.32   13.31   15.80   10.36    7.24    5.74    0.90    0.63    0.54    0.09    0.11    0.13  162.97  190.79    0.39   55.16    0.00  107.80   48.56   23.40    0.00
 2009 198    95    80     4   152.9  149.1    3.8   17.69   13.36   15.84   10.33    7.25    5.75    0.79    0.59    0.52    0.09    0.11    0.13  163.89  191.60    0.39   55.51    0.00  108.38   48.96   23.40    0.00
 2009 199    96    80     4   153.3  149.7    3.5   18.05   13.41   15.90   10.33    7.26    5.77    0.67    0.55    0.50    0.08    0.11    0.13  164.76  192.36    0.39   55.84    0.00  108.91   49.13   23.40    0.00
 2009 200    97    80     4   153.8  150.4    3.3   18.37   13.46   15.98   10.35    7.28    5.80    0.56    0.51    0.48    0.08    0.11    0.13  165.57  193.07    0.39   56.15    0.00  109.41   49.13   23.40    0.00
 2009 201    98    80     4   153.7  150.6    3.1   18.68   13.48   16.00   10.31    7.27    5.80    0.45    0.47    0.45    0.08    0.10    0.12  166.34  193.75    0.39   56.45    0.00  109.88   49.64   23.40    0.00
 2009 202    99    80     4   154.0  151.1    2.9   18.97   13.51   16.05   10.31    7.28    5.82    0.37    0.43    0.44    0.08    0.10    0.12  167.08  194.39    0.39   56.74    0.00  110.34   49.83   23.40    0.00
 2009 203   100    80     4   154.4  151.7    2.8   19.24   13.54   16.12   10.32    7.30    5.84    0.30    0.40    0.42    0.07    0.10    0.12  167.79  194.99    0.39   57.02    0.00  110.78   49.83   23.40    0.00
 2009 204   101    80     4   154.5  151.8    2.6   19.49   13.55   16.14   10.30    7.30    5.85    0.25    0.36    0.40    0.07    0.10    0.12  168.49  195.57    0.39   57.29    0.00  111.21   50.22   23.40    0.00
 2009 205   102    80     4   154.9  152.4    2.5   15.89   15.50   16.21   10.31    7.31    5.88    0.21    0.33    0.38    0.07    0.10    0.12  169.18  196.12    0.39   57.55    0.00  111.63   50.22   23.40    0.00
 2009 206   103    80     4   155.5  152.8    2.7   15.78   15.66   16.26   10.31    7.33    5.90    0.50    0.35    0.37    0.07    0.09    0.12  170.27  196.64    0.39   57.93    0.00  112.34   50.32   23.40    0.00
 2009 207   104    80     4   155.7  152.9    2.8   17.25   15.56   16.08   10.23    7.30    5.89    0.68    0.37    0.35    0.07    0.09    0.11  171.29  197.20    0.39   58.28    0.00  113.01   50.77   23.40    0.00
 2009 208   105    80     4   156.0  153.1    2.8   17.55   15.53   16.10   10.21    7.30    5.90    0.78    0.38    0.34    0.07    0.09    0.11  172.22  197.76    0.39   58.60    0.00  113.62   51.14   23.40    0.00
 2009 209   106    80     4   156.3  153.5    2.8   17.91   15.52   16.13   10.20    7.30    5.92    0.82    0.38    0.32    0.06    0.09    0.11  173.05  198.31    0.39   58.89    0.00  114.16   51.32   23.40    0.00
 2009 210   107    80     4   156.6  153.8    2.8   18.27   15.50   16.15   10.19    7.31    5.93    0.82    0.38    0.31    0.06    0.09    0.11  173.80  198.83    0.39   59.15    0.00  114.64   51.50   23.40    0.00
 2009 211   108    80     4   156.7  154.0    2.7   18.63   15.47   16.15   10.17    7.30    5.93    0.79    0.37    0.31    0.06    0.09    0.11  174.47  199.33    0.39   59.39    0.00  115.08   51.86   23.40    0.00
 2009 212   109    80     4   157.1  154.5    2.6   18.99   15.47   16.19   10.18    7.32    5.95    0.74    0.36    0.30    0.06    0.09    0.11  175.09  199.81    0.39   59.61    0.00  115.48   51.86   23.40    0.00
 2009 213   110    80     4   157.5  154.9    2.5   16.42   16.93   16.22   10.18    7.33    5.97    0.68    0.35    0.29    0.06    0.09    0.11  175.67  200.28    0.39   59.82    0.00  115.85   51.86   23.40    0.00
 2009 214   111    80     4   158.1  155.3    2.7   16.38   17.08   16.25   10.19    7.35    5.99    0.87    0.38    0.28    0.06    0.09    0.11  176.56  200.70    0.39   60.12    0.00  116.44   51.86   23.40    0.00
 2009 215   112    80     4   158.6  155.8    2.8   18.12   16.97   16.08   10.14    7.33    6.00    0.97    0.41    0.27    0.06    0.08    0.11  177.43  201.21    0.39   60.42    0.00  117.01   51.86   23.40    0.00
 2009 216   113    80     4   159.2  156.4    2.8   18.53   16.97   16.11   10.14    7.35    6.01    0.99    0.42    0.25    0.06    0.08    0.10  178.22  201.73    0.39   60.69    0.00  117.54   51.86   23.40    0.00
 2009 217   114    80     4   159.6  156.9    2.7   18.96   16.97   16.14   10.15    7.36    6.03    0.98    0.43    0.24    0.06    0.08    0.10  178.97  202.26    0.39   60.94    0.00  118.02   51.86   23.40    0.00
 2009 218   115    80     4   160.1  157.4    2.7   19.38   16.97   16.16   10.16    7.38    6.05    0.93    0.43    0.23    0.06    0.08    0.10  179.66  202.78    0.39   61.18    0.00  118.48   51.86   23.40    0.00
 2009 219   116    80     4   160.5  157.9    2.6   19.79   16.98   16.19   10.17    7.39    6.07    0.86    0.42    0.22    0.05    0.08    0.10  180.30  203.30    0.39   61.41    0.00  118.90   51.86   23.40    0.00
 2009 220   117    80     4   160.9  158.4    2.5   20.19   16.98   16.21   10.17    7.41    6.09    0.78    0.41    0.21    0.05    0.08    0.10  180.89  203.79    0.39   61.61    0.00  119.28   51.86   23.40    0.00
 2009 221   118    80     4   161.2  158.9    2.4   20.57   16.98   16.23   10.18    7.42    6.11    0.70    0.39    0.21    0.05    0.08    0.10  181.43  204.25    0.39   61.80    0.00  119.63   51.86   23.40    0.00
 2009 222   119    80     4   161.6  159.3    2.2    6.05   15.75   20.49   11.20    7.43    6.13    0.60    0.38    0.20    0.05    0.08    0.10  181.93  204.71    0.39   61.98    0.00  119.96   51.86   23.40    0.00
 2009 223   120    80     4   162.4  159.6    2.8    5.91   14.72   20.13   11.97    7.45    6.15    0.83    0.55    0.26    0.05    0.08    0.10  183.73  204.99    0.39   62.91    0.00  120.82   51.86   23.40    0.00
 2009 224   121    80     4   163.4  160.0    3.4    7.16   14.41   19.55   12.34    7.43    6.15    1.05    0.74    0.33    0.06    0.07    0.10  185.67  205.37    0.39   63.87    0.00  121.80   51.86   23.40    0.00
 2009 225   122    80     4   164.5  160.7    3.8    8.49   14.56   19.41   12.28    7.42    6.15    1.15    0.85    0.38    0.06    0.07    0.09  187.69  206.05    0.39   64.84    0.00  122.84   51.86   23.40    0.00
 2009 226   123    80     4   165.4  161.4    4.0    8.93   14.67   19.46   12.29    7.44    6.17    1.17    0.92    0.42    0.07    0.07    0.09  189.58  206.80    0.39   65.77    0.00  123.81   51.86   23.40    0.00
 2009 227   124    80     4   166.3  162.2    4.1    9.37   14.79   19.52   12.30    7.45    6.19    1.17    0.97    0.44    0.07    0.07    0.09  191.34  207.57    0.39   66.63    0.00  124.71   51.86   23.40    0.00
 2009 228   125    80     4   167.1  163.0    4.2    9.81   14.91   19.58   12.30    7.46    6.21    1.14    0.99    0.46    0.07    0.07    0.09  192.98  208.35    0.39   67.45    0.00  125.53   51.86   23.40    0.00
 2009 229   126    80     4   167.9  163.8    4.1   10.24   15.04   19.64   12.31    7.48    6.22    1.07    0.99    0.46    0.07    0.07    0.09  194.52  209.15    0.39   68.23    0.00  126.29   51.86   23.40    0.00
 2009 230   127    80     4   168.6  164.6    4.0   10.66   15.17   19.71   12.32    7.49    6.24    0.99    0.97    0.46    0.07    0.07    0.09  195.95  209.94    0.39   68.96    0.00  126.99   51.86   23.40    0.00
 2009 231   128    80     4   169.3  165.3    3.9   11.07   15.30   19.77   12.33    7.50    6.26    0.89    0.95    0.46    0.08    0.07    0.09  197.32  210.72    0.39   69.67    0.00  127.65   51.86   23.40    0.00
 2009 232   129    80     4   169.9  166.1    3.8   11.47   15.43   19.84   12.34    7.51    6.27    0.78    0.92    0.45    0.08    0.07    0.09  198.61  211.49    0.39   70.34    0.00  128.27   51.86   23.40    0.00
 2009 233   130    80     4   170.5  166.8    3.6   11.84   15.54   19.90   12.35    7.53    6.29    0.70    0.88    0.43    0.08    0.07    0.09  199.83  212.22    0.39   70.98    0.00  128.85   51.86   23.40    0.00
 2009 234   131    80     4   171.0  167.5    3.5   12.20   15.65   19.96   12.36    7.54    6.31    0.62    0.84    0.42    0.07    0.07    0.09  200.96  212.92    0.39   71.57    0.00  129.39   51.86   23.40    0.00
 2009 235   132    80     4   171.5  168.2    3.3   12.55   15.75   20.02   12.38    7.55    6.33    0.53    0.80    0.40    0.07    0.07    0.09  202.03  213.59    0.39   72.14    0.00  129.90   51.86   23.40    0.00
 2009 236   133    80     4   172.0  168.9    3.1   12.88   15.85   20.07   12.39    7.56    6.34    0.44    0.76    0.39    0.07    0.07    0.09  203.04  214.24    0.39   72.68    0.00  130.37   51.86   23.40    0.00
 2009 237   134    80     4   172.4  169.5    2.9    3.05   11.94   21.18   15.26    7.97    6.36    0.36    0.71    0.37    0.07    0.07    0.09  204.02  214.86    0.39   73.20    0.00  130.82   51.86   23.40    0.00
 2009 238   135    80     4   173.3  169.8    3.5    3.88   11.34   19.31   15.34    9.24    6.34    0.65    0.88    0.41    0.08    0.07    0.09  205.80  215.18    0.39   74.09    0.00  131.71   51.86   23.40    0.00
 2009 239   136    80     4   174.5  170.3    4.2    5.15   11.48   18.79   15.28    9.44    6.34    0.95    1.06    0.49    0.08    0.08    0.08  207.95  215.68    0.39   75.04    0.00  132.91   51.86   23.40    0.00
 2009 240   137    80     4   175.6  171.2    4.5    6.81   11.94   18.61   15.14    9.40    6.33    1.07    1.10    0.53    0.08    0.08    0.08  210.00  216.54    0.39   75.95    0.00  134.04   51.86   23.40    0.00
 2009 241   138    80     4   176.7  172.1    4.7    7.20   12.12   18.70   15.15    9.42    6.35    1.14    1.13    0.56    0.08    0.09    0.08  211.98  217.47    0.39   76.83    0.00  135.15   51.86   23.40    0.00
 2009 242   139    80     4   177.7  173.0    4.7    7.61   12.31   18.79   15.17    9.43    6.36    1.15    1.14    0.58    0.08    0.09    0.08  213.83  218.40    0.39   77.67    0.00  136.16   51.86   23.40    0.00
 2009 243   140    80     4   178.7  174.0    4.7    8.02   12.50   18.88   15.18    9.45    6.38    1.11    1.13    0.59    0.08    0.10    0.08  215.57  219.35    0.39   78.48    0.00  137.10   51.86   23.40    0.00
 2009 244   141    80     4   179.6  174.9    4.7    8.42   12.68   18.98   15.19    9.47    6.39    1.05    1.11    0.59    0.08    0.10    0.08  217.22  220.30    0.39   79.25    0.00  137.97   51.86   23.40    0.00
 2009 245   142    80     4   180.4  175.8    4.5    8.81   12.85   19.07   15.20    9.49    6.41    0.97    1.09    0.58    0.08    0.10    0.08  218.76  221.21    0.39   79.98    0.00  138.78   51.86   23.40    0.00
 2009 246   143    80     4   181.1  176.7    4.4    9.19   13.02   19.16   15.21    9.51    6.42    0.88    1.06    0.57    0.08    0.10    0.08  220.22  222.10    0.39   80.68    0.00  139.53   51.86   23.40    0.00
 2009 247   144    80     4   181.8  177.6    4.3    7.91   14.00   19.26   15.22    9.53    6.44    0.77    1.02    0.56    0.08    0.10    0.08  221.62  222.98    0.39   81.37    0.00  140.25   51.86   23.40    0.00
 2009 248   145    80     4   182.8  178.4    4.4    7.96   14.28   19.35   15.23    9.55    6.45    0.98    1.05    0.54    0.08    0.11    0.08  223.38  223.80    0.39   82.15    0.00  141.23   51.86   23.40    0.00
 2009 249   146    80     4   183.8  179.3    4.4    9.73   14.55   19.21   15.12    9.52    6.45    1.08    1.06    0.52    0.08    0.10    0.08  225.08  224.71    0.39   82.91    0.00  142.17   51.86   23.40    0.00
 2009 250   147    80     4   184.7  180.3    4.4   10.17   14.72   19.30   15.13    9.54    6.47    1.09    1.05    0.51    0.08    0.10    0.07  226.72  225.66    0.39   83.65    0.00  143.08   51.86   23.40    0.00
