*SOIL ORGANIC N BALANCE - CENTURY ROUTINES

*DSSAT Cropping System Model Ver. 4.7.2.000 -release      OCT 15, 2021; 17:59:34
                                                                                
*RUN   1        :             CSM335_date_1 MZCER047 ITSA1301    1              
 MODEL          : MZCER047 - Maize                                              
 EXPERIMENT     : ITSA1301 SG CALIBRATION SETUP OF SORGHUM SOWING DATES         
 DATA PATH      :                                                               
 TREATMENT  1   :             CSM335_date_1 MZCER047                            
  


!                                        INITIAL Year/Doy      FINAL Year/Doy
!                                                2009/104            2009/250
! SOIL N BALANCE                                -----------kg N/ha-----------
!  SOIL & SURFACE ORGANIC MATTER N
!   Active (= microbial) SOM N                     279.83              248.89
!   Intermediate SOM N                            3127.51             3040.61
!   Passive SOM N                                24520.42            24499.95
!   Soil Litter N                                    4.50                0.33
!   N in Litter on Top of the Soil                   0.00                0.00
!   N in Microbes on Top of the Soil                 0.00                0.00
!                                                --------            --------
!   Total Organic N in Soil and Surface Layers   27932.26            27789.79

!  ADDITIONS AND REMOVALS:
!   N in Harvest Residues from Previous Crop         0.00
!   N from Organic Applications                      0.00
!   N in returned senesced material                  0.60
!   N immobilized                                   83.65
!   N mineralized                                                      226.72
!                                                --------            --------
!     TOTAL N BALANCE                            28016.51            28016.51
!   Balance                                                             -0.00
