
*SOIL N BALANCE - CENTURY ROUTINES

*DSSAT Cropping System Model Ver. 4.7.2.000 -release      OCT 15, 2021; 17:59:34

!                     |------------------- N State Variables -------------------| |------------ N Additions ------------| |--------------- N Subtractions ----------------| |-Mineralization--|
!                                                                                   Harvest   Applied                                   Tile-     N gas     Flood    Miner-    Immob-  Seasonal
!                       Surface      SOM1      SOM2      SOM3    Litter     Inorg   Residue   Residue  Fertiliz   Senesed   Leached   drained    Uptake    Losses    Losses    alized    ilized   Balance
@Run FILEX         TN      SN0D     S1NTD     S2NTD     S3NTD      LNTD      NIAD      HRNH     RESNC      NICM     SNNTC      NLCM      TDFC      NUCM     NGasC      RNRO      NMNC      NIMC   SEASBAL
   1 ITSA1301.SGX INIT     0.00    279.83   3127.51  24520.42      4.50      0.00
   1 ITSA1301.SGX   1      0.00    248.89   3040.61  24499.95      0.33    184.83      0.00      0.00     80.00      0.60     23.40      0.00     51.86      0.57      0.00    226.72     83.65     -0.00
