*SOM N DAILY OUTPUT FILE

*DSSAT Cropping System Model Ver. 4.7.2.000 -release      OCT 15, 2021; 17:59:34
                                                                                
*RUN   1        :             CSM335_date_1 MZCER047 ITSA1301    1              
 MODEL          : MZCER047 - Maize                                              
 EXPERIMENT     : ITSA1301 SG CALIBRATION SETUP OF SORGHUM SOWING DATES         
 DATA PATH      :                                                               
 TREATMENT  1   :             CSM335_date_1 MZCER047                            
  
!                                                                                                                                                                                                                                                                                                                                                                                                                                                Cumul.
!               <---- SOM N in top layers ----> <---------------- Total Soil Organic Nitrogen ----------------> <-------- Active Soil Organic Nitrogen (SOM1) --------> <---- Intermediate Soil Organic N (SOM2) -----> <------- Passive Soil Organic N (SOM3) -------> <----------------- Litter Nitrogen -------------------> <------------- Metabolic Litter Nitrogen -------------> <------------ Structural Litter Nitrogen ------------->  Res. N
!               20cm-kg  20cm-% 40cm-kg  40cm-%   Total Surface    Soil     0-5    5-15   15-30   30-53  53-100 Surface    Soil     0-5    5-15   15-30   30-53  53-100    Soil     0-5    5-15   15-30   30-53  53-100    Soil     0-5    5-15   15-30   30-53  53-100 Surface    Soil     0-5    5-15   15-30   30-53  53-100 Surface    Soil     0-5    5-15   15-30   30-53  53-100 Surface    Soil     0-5    5-15   15-30   30-53  53-100 (kg/ha)
@YEAR DOY   DAS  SNS20D  SN%20D  SNS40D  SN%40D    SOND    SN0D    SNTD    SN1D    SN2D    SN3D    SN4D   SN5+D   S1N0D   S1NTD   S1N1D   S1N2D   S1N3D   S1N4D  S1N5+D   S2NTD   S2N1D   S2N2D   S2N3D   S2N4D  S2N5+D   S3NTD   S3N1D   S3N2D   S3N3D   S3N4D  S3N5+D    LN0D    LNTD    LN1D    LN2D    LN3D    LN4D   LN5+D   MEN0D   MENTD   MEN1D   MEN2D   MEN3D   MEN4D  MEN5+D   STN0D   STNTD   STN1D   STN2D   STN3D   STN4D  STN5+D   RESNC
 2009 103     0    4752   0.159    5341   0.180   27932       0   27932    1188    2377    3567    6816   13983       0     280      44      88     133       5      10    3128     493     987    1482      54     111   24520     650    1300    1952    6756   13862    0.00    4.50    0.67    1.07    1.10    0.95    0.72    0.00    4.11    0.61    0.97    1.00    0.86    0.66    0.00    0.39    0.06    0.09    0.10    0.08    0.06       0
 2009 104     1    4752   0.159    5340   0.180   27931       0   27931    1188    2377    3567    6816   13983       0     280      44      88     132       5      10    3127     493     987    1482      54     111   24520     650    1300    1952    6756   13862    0.00    4.41    0.64    1.05    1.08    0.93    0.71    0.00    4.02    0.58    0.96    0.99    0.85    0.65    0.00    0.39    0.06    0.09    0.10    0.08    0.06       0
 2009 105     2    4752   0.159    5340   0.180   27931       0   27931    1188    2377    3567    6816   13983       0     279      44      88     132       5      10    3127     493     987    1482      54     111   24520     650    1300    1952    6756   13862    0.00    4.33    0.62    1.03    1.06    0.92    0.70    0.00    3.94    0.56    0.94    0.97    0.84    0.64    0.00    0.39    0.06    0.09    0.10    0.08    0.06       0
 2009 106     3    4750   0.159    5340   0.180   27929       0   27929    1187    2376    3566    6816   13983       0     279      44      88     132       5      10    3126     493     987    1482      54     111   24520     650    1300    1952    6756   13862    0.00    4.19    0.58    0.97    1.04    0.90    0.69    0.00    3.79    0.52    0.87    0.95    0.82    0.63    0.00    0.39    0.06    0.09    0.10    0.08    0.06       0
 2009 107     4    4750   0.159    5340   0.180   27928       0   27928    1187    2376    3566    6816   13983       0     278      44      88     132       5      10    3125     493     987    1481      54     111   24520     650    1300    1952    6756   13862    0.00    4.06    0.55    0.91    1.02    0.89    0.68    0.00    3.67    0.49    0.82    0.93    0.81    0.62    0.00    0.39    0.06    0.09    0.10    0.08    0.06       0
 2009 108     5    4749   0.159    5340   0.180   27927       0   27927    1187    2375    3566    6816   13983       0     278      44      87     132       5      10    3125     493     986    1481      54     111   24520     650    1300    1952    6756   13862    0.00    3.94    0.52    0.86    1.00    0.88    0.67    0.00    3.55    0.46    0.77    0.91    0.80    0.61    0.00    0.39    0.06    0.09    0.10    0.08    0.06       0
 2009 109     6    4747   0.159    5339   0.180   27925       0   27925    1186    2374    3565    6816   13983       0     277      43      87     132       5      10    3123     493     986    1481      54     111   24520     650    1300    1952    6756   13862    0.00    3.77    0.49    0.81    0.94    0.87    0.67    0.00    3.38    0.43    0.72    0.84    0.79    0.60    0.00    0.39    0.06    0.09    0.09    0.08    0.06       0
 2009 110     7    4746   0.159    5338   0.180   27922       0   27922    1186    2374    3564    6816   13983       0     276      43      87     131       5      10    3122     492     985    1480      54     111   24520     650    1301    1952    6756   13862    0.00    3.60    0.46    0.76    0.88    0.85    0.66    0.00    3.22    0.40    0.66    0.79    0.77    0.60    0.00    0.39    0.06    0.09    0.09    0.08    0.06       0
 2009 111     8    4745   0.159    5338   0.180   27920       0   27920    1186    2373    3563    6816   13983       0     275      43      87     131       5      10    3121     492     985    1480      54     111   24520     650    1301    1952    6756   13862    0.00    3.45    0.44    0.71    0.82    0.83    0.65    0.00    3.07    0.38    0.62    0.73    0.75    0.59    0.00    0.39    0.06    0.09    0.09    0.08    0.06       0
 2009 112     9    4744   0.159    5337   0.180   27918       0   27918    1186    2372    3562    6816   13983       0     275      43      86     130       5      10    3120     492     985    1479      54     111   24520     650    1301    1952    6756   13862    0.00    3.30    0.41    0.66    0.77    0.81    0.65    0.00    2.91    0.35    0.57    0.67    0.73    0.59    0.00    0.38    0.06    0.09    0.09    0.08    0.06       0
 2009 113    10    4743   0.159    5337   0.180   27917       0   27917    1185    2372    3561    6816   13983       0     274      43      86     130       5      10    3119     492     984    1478      54     111   24520     650    1301    1952    6756   13862    0.00    3.16    0.38    0.62    0.72    0.79    0.65    0.00    2.78    0.33    0.53    0.63    0.71    0.58    0.00    0.38    0.06    0.09    0.09    0.08    0.06       0
 2009 114    11    4742   0.159    5336   0.180   27915       0   27915    1185    2371    3560    6816   13983       0     273      43      86     129       5      10    3118     492     984    1478      54     111   24520     650    1301    1952    6756   13862    0.00    3.04    0.37    0.58    0.68    0.77    0.64    0.00    2.66    0.31    0.49    0.58    0.69    0.58    0.00    0.38    0.06    0.09    0.09    0.08    0.06       0
 2009 115    12    4741   0.159    5336   0.180   27913       0   27913    1185    2371    3559    6816   13983       0     272      43      85     129       5      10    3118     492     984    1478      54     111   24520     650    1301    1952    6756   13862    0.00    2.90    0.34    0.55    0.64    0.73    0.64    0.00    2.52    0.29    0.46    0.55    0.65    0.58    0.00    0.38    0.06    0.09    0.09    0.08    0.06       0
 2009 116    13    4739   0.159    5335   0.180   27911       0   27911    1184    2370    3559    6816   13983       0     272      43      85     129       5      10    3117     491     984    1477      54     111   24520     650    1301    1952    6756   13862    0.00    2.75    0.32    0.51    0.60    0.68    0.64    0.00    2.37    0.27    0.42    0.51    0.60    0.57    0.00    0.38    0.06    0.09    0.09    0.08    0.06       0
 2009 117    14    4738   0.159    5334   0.180   27909       0   27909    1184    2369    3558    6816   13983       0     271      42      85     128       5      10    3116     491     983    1477      54     111   24520     650    1301    1952    6756   13862    0.00    2.62    0.30    0.48    0.56    0.64    0.63    0.00    2.24    0.25    0.39    0.47    0.56    0.57    0.00    0.38    0.06    0.09    0.09    0.08    0.06       0
 2009 118    15    4737   0.159    5334   0.180   27908       0   27908    1184    2369    3557    6815   13983       0     270      42      85     128       5      10    3115     491     983    1476      54     111   24520     650    1301    1952    6756   13862    0.00    2.49    0.29    0.45    0.52    0.60    0.63    0.00    2.12    0.23    0.37    0.43    0.52    0.57    0.00    0.38    0.05    0.09    0.09    0.08    0.06       0
 2009 119    16    4736   0.159    5333   0.180   27906       0   27906    1184    2368    3556    6815   13983       0     269      42      84     127       5      10    3114     491     983    1476      54     111   24520     650    1301    1952    6756   13861    0.00    2.39    0.28    0.43    0.49    0.56    0.63    0.00    2.01    0.22    0.34    0.40    0.48    0.57    0.00    0.37    0.05    0.09    0.09    0.08    0.06       0
 2009 120    17    4735   0.159    5333   0.180   27904       0   27904    1183    2368    3555    6815   13983       0     269      42      84     127       5      10    3113     491     982    1475      54     111   24520     650    1301    1952    6755   13861    0.00    2.29    0.27    0.41    0.46    0.52    0.63    0.00    1.92    0.21    0.32    0.37    0.45    0.56    0.00    0.37    0.05    0.09    0.09    0.08    0.06       0
 2009 121    18    4735   0.159    5332   0.180   27903       0   27903    1183    2367    3554    6815   13983       0     268      42      84     127       5      10    3113     491     982    1475      54     111   24520     650    1301    1952    6755   13861    0.00    2.20    0.26    0.39    0.43    0.49    0.62    0.00    1.83    0.21    0.30    0.34    0.41    0.56    0.00    0.37    0.05    0.09    0.09    0.08    0.06       0
 2009 122    19    4734   0.159    5332   0.180   27902       0   27902    1183    2367    3554    6815   13983       0     268      42      84     126       6      10    3112     491     982    1475      54     111   24520     650    1301    1952    6755   13861    0.00    2.12    0.26    0.37    0.41    0.46    0.62    0.00    1.75    0.20    0.29    0.32    0.38    0.56    0.00    0.37    0.05    0.09    0.09    0.08    0.06       0
 2009 123    20    4733   0.159    5331   0.180   27900       0   27900    1183    2366    3553    6815   13983       0     267      42      83     126       6      10    3111     491     982    1474      54     111   24520     650    1301    1952    6755   13861    0.00    2.05    0.25    0.36    0.39    0.43    0.62    0.00    1.68    0.20    0.27    0.30    0.36    0.56    0.00    0.37    0.05    0.09    0.09    0.08    0.06       0
 2009 124    21    4733   0.159    5331   0.179   27899       0   27899    1183    2366    3552    6815   13983       0     267      42      83     126       6      10    3110     491     982    1474      54     111   24520     650    1301    1952    6755   13861    0.00    1.99    0.25    0.34    0.37    0.41    0.62    0.00    1.62    0.20    0.26    0.28    0.33    0.56    0.00    0.37    0.05    0.09    0.09    0.08    0.06       0
 2009 125    22    4732   0.159    5330   0.179   27898       0   27898    1183    2366    3552    6815   13983       0     266      42      83     125       6      10    3110     491     981    1473      54     111   24520     650    1301    1952    6755   13861    0.00    1.92    0.24    0.33    0.35    0.39    0.62    0.00    1.55    0.18    0.25    0.26    0.31    0.55    0.00    0.37    0.05    0.09    0.09    0.08    0.06       0
 2009 126    23    4731   0.159    5330   0.179   27896       0   27896    1183    2365    3551    6815   13983       0     266      42      83     125       6      10    3109     491     981    1473      54     111   24520     650    1301    1953    6755   13861    0.00    1.85    0.22    0.32    0.33    0.36    0.61    0.00    1.49    0.17    0.23    0.24    0.29    0.55    0.00    0.37    0.05    0.09    0.09    0.08    0.06       0
 2009 127    24    4731   0.159    5329   0.179   27895       0   27895    1183    2365    3550    6814   13983       0     265      42      83     125       6      10    3108     490     981    1473      54     111   24520     650    1301    1953    6755   13861    0.00    1.80    0.21    0.31    0.32    0.34    0.61    0.00    1.43    0.16    0.22    0.23    0.27    0.55    0.00    0.37    0.05    0.09    0.09    0.08    0.06       0
 2009 128    25    4730   0.159    5329   0.179   27894       0   27894    1183    2365    3550    6814   13983       0     265      42      82     125       6      10    3108     490     981    1472      54     111   24520     650    1301    1953    6755   13861    0.00    1.75    0.21    0.30    0.31    0.33    0.61    0.00    1.38    0.15    0.21    0.22    0.25    0.55    0.00    0.37    0.05    0.08    0.09    0.08    0.06       0
 2009 129    26    4730   0.159    5329   0.179   27893       0   27893    1183    2364    3549    6814   13983       0     265      42      82     124       6      10    3107     490     981    1472      54     111   24520     650    1301    1953    6755   13861    0.00    1.70    0.20    0.29    0.29    0.31    0.61    0.00    1.34    0.14    0.20    0.21    0.23    0.55    0.00    0.36    0.05    0.08    0.09    0.08    0.06       0
 2009 130    27    4729   0.159    5328   0.179   27892       0   27892    1183    2364    3549    6814   13983       0     265      42      82     124       6      10    3106     490     980    1472      54     111   24520     650    1301    1953    6754   13861    0.00    1.66    0.19    0.28    0.28    0.30    0.61    0.00    1.29    0.14    0.20    0.20    0.22    0.54    0.00    0.36    0.05    0.08    0.09    0.08    0.06       0
 2009 131    28    4729   0.159    5328   0.179   27891       0   27891    1183    2364    3548    6814   13983       0     264      42      82     124       6      10    3106     490     980    1471      54     111   24520     650    1301    1953    6754   13861    0.00    1.62    0.18    0.27    0.27    0.28    0.60    0.00    1.26    0.13    0.19    0.19    0.21    0.54    0.00    0.36    0.05    0.08    0.09    0.08    0.06       0
 2009 132    29    4728   0.159    5327   0.179   27890       0   27890    1183    2363    3548    6814   13983       0     264      42      82     124       6      10    3105     490     980    1471      54     111   24520     650    1301    1953    6754   13861    0.00    1.59    0.18    0.27    0.27    0.27    0.60    0.00    1.22    0.12    0.18    0.18    0.20    0.54    0.00    0.36    0.05    0.08    0.09    0.08    0.06       0
 2009 133    30    4728   0.159    5327   0.179   27889       0   27889    1183    2363    3547    6814   13983       0     264      42      82     124       6      10    3105     490     980    1471      54     111   24520     650    1301    1953    6754   13861    0.00    1.56    0.17    0.26    0.26    0.26    0.60    0.00    1.20    0.12    0.18    0.17    0.19    0.54    0.00    0.36    0.05    0.08    0.09    0.08    0.06       0
 2009 134    31    4727   0.159    5327   0.179   27889       0   27889    1183    2363    3547    6814   13983       0     263      42      82     123       6      10    3104     490     980    1470      54     111   24519     650    1301    1953    6754   13861    0.00    1.53    0.17    0.26    0.25    0.25    0.60    0.00    1.17    0.12    0.17    0.17    0.17    0.54    0.00    0.36    0.05    0.08    0.09    0.08    0.06       0
 2009 135    32    4727   0.159    5326   0.179   27888       0   27888    1183    2363    3546    6814   13983       0     263      42      82     123       6      10    3104     490     980    1470      54     111   24519     650    1301    1953    6754   13861    0.00    1.50    0.17    0.25    0.25    0.24    0.60    0.00    1.14    0.12    0.17    0.16    0.16    0.54    0.00    0.36    0.05    0.08    0.09    0.07    0.06       0
 2009 136    33    4726   0.159    5326   0.179   27887       0   27887    1183    2362    3546    6814   13983       0     263      42      81     123       6      10    3103     490     980    1470      54     111   24519     650    1301    1953    6754   13861    0.00    1.48    0.17    0.25    0.24    0.23    0.60    0.00    1.12    0.12    0.16    0.15    0.16    0.53    0.00    0.36    0.05    0.08    0.09    0.07    0.06       0
 2009 137    34    4726   0.159    5326   0.179   27886       0   27886    1183    2362    3545    6813   13983       0     263      42      81     123       6      10    3103     490     979    1470      54     111   24519     650    1301    1953    6754   13861    0.00    1.46    0.17    0.24    0.23    0.22    0.59    0.00    1.11    0.12    0.16    0.15    0.15    0.53    0.00    0.36    0.05    0.08    0.09    0.07    0.06       0
 2009 138    35    4726   0.159    5325   0.179   27885       0   27885    1183    2362    3545    6813   13983       0     262      42      81     123       6      10    3102     490     979    1469      54     111   24519     650    1301    1953    6754   13861    0.00    1.45    0.17    0.24    0.23    0.21    0.59    0.00    1.09    0.12    0.16    0.14    0.14    0.53    0.00    0.36    0.05    0.08    0.09    0.07    0.06       0
 2009 139    36    4725   0.159    5325   0.179   27885       0   27885    1183    2362    3545    6813   13983       0     262      42      81     122       6      10    3102     490     979    1469      54     111   24519     650    1301    1953    6754   13861    0.00    1.43    0.17    0.24    0.23    0.21    0.59    0.00    1.08    0.12    0.16    0.14    0.13    0.53    0.00    0.36    0.05    0.08    0.09    0.07    0.06       0
 2009 140    37    4725   0.159    5325   0.179   27884       0   27884    1183    2361    3544    6813   13982       0     262      43      81     122       6      10    3101     490     979    1469      53     111   24519     650    1301    1953    6753   13861    0.00    1.42    0.17    0.24    0.22    0.20    0.59    0.00    1.06    0.11    0.15    0.14    0.13    0.53    0.00    0.36    0.05    0.08    0.09    0.07    0.06       0
 2009 141    38    4725   0.159    5325   0.179   27883       0   27883    1183    2361    3544    6813   13982       0     262      43      81     122       6      10    3101     490     979    1468      53     111   24519     650    1301    1953    6753   13861    0.00    1.40    0.16    0.23    0.22    0.20    0.59    0.00    1.04    0.11    0.15    0.13    0.12    0.53    0.00    0.36    0.05    0.08    0.09    0.07    0.06       0
 2009 142    39    4724   0.159    5324   0.179   27883       0   27883    1182    2361    3543    6813   13982       0     262      43      81     122       6      10    3101     489     979    1468      53     111   24519     650    1301    1953    6753   13861    0.00    1.39    0.16    0.23    0.22    0.19    0.59    0.00    1.03    0.11    0.15    0.13    0.12    0.53    0.00    0.36    0.05    0.08    0.09    0.07    0.06       0
 2009 143    40    4724   0.159    5324   0.179   27882       0   27882    1182    2361    3543    6813   13982       0     261      43      81     122       6      10    3100     489     979    1468      53     111   24519     650    1301    1953    6753   13861    0.00    1.38    0.16    0.23    0.21    0.19    0.59    0.00    1.02    0.11    0.15    0.13    0.11    0.52    0.00    0.36    0.05    0.08    0.09    0.07    0.06       0
 2009 144    41    4724   0.159    5324   0.179   27881       0   27881    1182    2361    3543    6813   13982       0     261      43      81     122       6      10    3100     489     979    1468      53     111   24519     650    1301    1953    6753   13861    0.00    1.37    0.16    0.23    0.21    0.18    0.59    0.00    1.01    0.11    0.15    0.13    0.11    0.52    0.00    0.36    0.05    0.08    0.09    0.07    0.06       0
 2009 145    42    4723   0.158    5323   0.179   27880       0   27880    1182    2361    3542    6813   13982       0     261      42      81     121       6      10    3099     489     978    1467      53     110   24519     650    1301    1953    6753   13861    0.00    1.33    0.15    0.22    0.21    0.18    0.57    0.00    0.97    0.10    0.14    0.12    0.10    0.51    0.00    0.36    0.05    0.08    0.08    0.07    0.06       0
 2009 146    43    4722   0.158    5323   0.179   27879       0   27879    1182    2360    3541    6813   13982       0     260      42      81     121       6      10    3098     489     978    1467      53     110   24519     650    1301    1953    6753   13861    0.00    1.27    0.15    0.21    0.20    0.17    0.54    0.00    0.91    0.10    0.13    0.11    0.10    0.48    0.00    0.35    0.05    0.08    0.08    0.07    0.06       0
 2009 147    44    4721   0.158    5322   0.179   27877       0   27877    1182    2360    3541    6813   13982       0     260      42      81     121       6      10    3097     489     978    1466      53     110   24518     650    1301    1953    6753   13861    0.00    1.21    0.14    0.20    0.19    0.16    0.51    0.00    0.86    0.09    0.12    0.11    0.09    0.45    0.00    0.35    0.05    0.08    0.08    0.07    0.06       0
 2009 148    45    4721   0.158    5322   0.179   27875       0   27875    1181    2360    3540    6812   13982       0     260      42      81     121       6      10    3096     489     978    1466      53     110   24518     650    1301    1953    6753   13861    0.00    1.16    0.14    0.20    0.18    0.16    0.49    0.00    0.81    0.08    0.12    0.10    0.08    0.43    0.00    0.35    0.05    0.08    0.08    0.07    0.06       0
 2009 149    46    4720   0.158    5321   0.179   27874       0   27874    1181    2359    3539    6812   13982       0     259      42      80     120       6      10    3096     489     977    1466      53     110   24518     650    1301    1953    6753   13860    0.00    1.12    0.13    0.19    0.18    0.15    0.46    0.00    0.77    0.08    0.11    0.10    0.08    0.40    0.00    0.35    0.05    0.08    0.08    0.07    0.06       0
 2009 150    47    4719   0.158    5321   0.179   27873       0   27873    1181    2359    3539    6812   13982       0     259      42      80     120       6      10    3095     489     977    1465      53     110   24518     650    1301    1953    6753   13860    0.00    1.09    0.13    0.19    0.18    0.15    0.44    0.00    0.74    0.08    0.11    0.09    0.08    0.38    0.00    0.35    0.05    0.08    0.08    0.07    0.06       0
 2009 151    48    4719   0.158    5321   0.179   27872       0   27872    1181    2359    3538    6812   13981       0     259      42      80     120       6      10    3094     489     977    1465      53     110   24518     650    1301    1953    6752   13860    0.00    1.06    0.13    0.19    0.17    0.14    0.42    0.00    0.71    0.08    0.11    0.09    0.07    0.36    0.00    0.35    0.05    0.08    0.08    0.07    0.06       0
 2009 152    49    4718   0.158    5320   0.179   27871       0   27871    1181    2359    3538    6812   13981       0     258      42      80     120       6      11    3094     489     977    1465      53     110   24517     650    1301    1953    6752   13860    0.00    1.03    0.13    0.18    0.17    0.14    0.40    0.00    0.68    0.07    0.10    0.09    0.07    0.34    0.00    0.35    0.05    0.08    0.08    0.07    0.06       0
 2009 153    50    4718   0.158    5320   0.179   27870       0   27870    1181    2358    3537    6812   13981       0     258      42      80     120       6      11    3093     489     977    1464      53     110   24517     650    1301    1953    6752   13860    0.00    1.01    0.12    0.18    0.17    0.14    0.39    0.00    0.66    0.07    0.10    0.09    0.07    0.33    0.00    0.35    0.05    0.08    0.08    0.07    0.06       0
 2009 154    51    4718   0.158    5320   0.179   27869       0   27869    1181    2358    3537    6812   13981       0     258      42      80     119       6      11    3093     488     976    1464      53     110   24517     650    1301    1953    6752   13860    0.00    0.98    0.12    0.18    0.17    0.14    0.37    0.00    0.64    0.07    0.10    0.09    0.07    0.31    0.00    0.35    0.05    0.08    0.08    0.07    0.06       0
 2009 155    52    4717   0.158    5319   0.179   27868       0   27868    1181    2358    3537    6812   13981       0     258      42      80     119       6      11    3092     488     976    1464      53     110   24517     650    1301    1953    6752   13860    0.00    0.97    0.12    0.18    0.17    0.14    0.36    0.00    0.62    0.07    0.10    0.09    0.06    0.30    0.00    0.35    0.05    0.08    0.08    0.07    0.06       0
 2009 156    53    4717   0.158    5319   0.179   27867       0   27867    1181    2358    3536    6812   13981       0     258      42      80     119       6      11    3092     488     976    1464      53     110   24517     650    1301    1953    6752   13859    0.00    0.95    0.12    0.18    0.17    0.13    0.34    0.00    0.60    0.07    0.10    0.08    0.06    0.28    0.00    0.35    0.05    0.08    0.08    0.07    0.06       0
 2009 157    54    4717   0.158    5319   0.179   27866       0   27866    1181    2358    3536    6812   13980       0     257      42      80     119       6      11    3091     488     976    1463      53     110   24517     650    1301    1954    6752   13859    0.00    0.93    0.13    0.18    0.17    0.13    0.33    0.00    0.59    0.07    0.10    0.08    0.06    0.27    0.00    0.35    0.05    0.08    0.08    0.07    0.06       0
 2009 158    55    4716   0.158    5318   0.179   27866       0   27866    1181    2357    3535    6812   13980       0     257      42      80     119       6      11    3091     488     976    1463      53     110   24516     650    1302    1954    6752   13859    0.00    0.92    0.13    0.18    0.17    0.13    0.32    0.00    0.57    0.07    0.10    0.08    0.06    0.26    0.00    0.35    0.05    0.08    0.08    0.07    0.06       0
 2009 159    56    4716   0.158    5318   0.179   27865       0   27865    1181    2357    3535    6812   13980       0     257      42      80     119       6      11    3091     488     976    1463      53     110   24516     650    1302    1954    6752   13859    0.00    0.91    0.13    0.18    0.17    0.13    0.31    0.00    0.56    0.08    0.10    0.08    0.06    0.25    0.00    0.35    0.05    0.08    0.08    0.07    0.06       0
 2009 160    57    4716   0.158    5318   0.179   27864       0   27864    1181    2357    3535    6811   13980       0     257      42      80     118       6      11    3090     488     976    1463      53     110   24516     650    1302    1954    6752   13859    0.00    0.90    0.13    0.18    0.17    0.13    0.30    0.00    0.55    0.08    0.10    0.08    0.06    0.24    0.00    0.35    0.05    0.08    0.08    0.07    0.06       0
 2009 161    58    4716   0.158    5318   0.179   27863       0   27863    1181    2357    3534    6811   13980       0     257      42      80     118       6      11    3090     488     976    1462      53     110   24516     650    1302    1954    6752   13859    0.00    0.88    0.13    0.18    0.16    0.13    0.29    0.00    0.54    0.08    0.10    0.08    0.06    0.23    0.00    0.35    0.05    0.08    0.08    0.07    0.06       0
 2009 162    59    4715   0.158    5317   0.179   27863       0   27863    1181    2357    3534    6811   13980       0     257      42      80     118       6      11    3090     488     976    1462      53     110   24516     650    1302    1954    6751   13859    0.00    0.87    0.13    0.18    0.16    0.12    0.28    0.00    0.52    0.08    0.09    0.08    0.05    0.22    0.00    0.35    0.05    0.08    0.08    0.07    0.06       0
 2009 163    60    4715   0.158    5317   0.179   27862       0   27862    1181    2357    3534    6811   13980       0     257      42      80     118       6      11    3089     488     975    1462      53     110   24515     650    1302    1954    6751   13858    0.00    0.84    0.12    0.17    0.16    0.12    0.26    0.00    0.49    0.07    0.09    0.07    0.05    0.21    0.00    0.34    0.05    0.08    0.08    0.07    0.06       0
 2009 164    61    4714   0.158    5317   0.179   27861       0   27861    1180    2357    3533    6811   13979       0     257      42      80     118       6      11    3088     488     975    1461      53     110   24515     650    1302    1954    6751   13858    0.00    0.81    0.12    0.17    0.15    0.12    0.25    0.00    0.47    0.07    0.08    0.07    0.05    0.19    0.00    0.34    0.05    0.08    0.08    0.07    0.06       0
 2009 165    62    4714   0.158    5316   0.179   27860       0   27860    1180    2357    3533    6811   13979       0     257      41      80     118       6      11    3087     488     975    1461      53     110   24515     650    1302    1954    6751   13858    0.00    0.79    0.12    0.16    0.15    0.12    0.24    0.00    0.45    0.07    0.08    0.07    0.05    0.18    0.00    0.34    0.05    0.08    0.08    0.07    0.06       0
 2009 166    63    4713   0.158    5316   0.179   27858       0   27858    1180    2356    3532    6811   13979       0     256      41      80     118       6      11    3086     488     975    1461      53     110   24515     650    1302    1954    6751   13858    0.00    0.77    0.11    0.16    0.15    0.12    0.23    0.00    0.43    0.06    0.08    0.07    0.05    0.17    0.00    0.34    0.05    0.08    0.08    0.07    0.06       0
 2009 167    64    4713   0.158    5316   0.179   27857       0   27857    1180    2356    3532    6811   13979       0     256      41      80     118       6      11    3086     488     974    1460      53     110   24515     650    1302    1954    6751   13858    0.00    0.76    0.11    0.16    0.15    0.12    0.22    0.00    0.41    0.06    0.08    0.07    0.05    0.17    0.00    0.34    0.05    0.08    0.08    0.07    0.06       0
 2009 168    65    4712   0.158    5315   0.179   27856       0   27856    1179    2356    3531    6811   13979       0     256      41      80     118       6      11    3085     488     974    1460      53     110   24514     650    1302    1954    6751   13857    0.00    0.74    0.11    0.15    0.15    0.11    0.21    0.00    0.40    0.06    0.07    0.07    0.05    0.16    0.00    0.34    0.05    0.08    0.08    0.07    0.06       0
 2009 169    66    4711   0.158    5315   0.179   27855       0   27855    1179    2356    3531    6811   13978       0     256      41      80     117       6      11    3084     488     974    1459      53     110   24514     650    1302    1954    6751   13857    0.00    0.72    0.10    0.15    0.15    0.11    0.21    0.00    0.38    0.05    0.07    0.06    0.04    0.15    0.00    0.34    0.05    0.08    0.08    0.07    0.06       0
 2009 170    67    4711   0.158    5315   0.179   27853       0   27853    1179    2355    3530    6811   13978       0     256      41      80     117       6      11    3083     487     974    1459      53     110   24514     650    1302    1954    6751   13857    0.00    0.71    0.10    0.15    0.14    0.11    0.20    0.00    0.37    0.05    0.07    0.06    0.04    0.14    0.00    0.34    0.05    0.08    0.08    0.07    0.06       0
 2009 171    68    4710   0.158    5314   0.179   27852       0   27852    1179    2355    3530    6811   13978       0     255      41      80     117       6      11    3082     487     973    1459      53     110   24514     651    1302    1954    6751   13857    0.00    0.69    0.10    0.15    0.14    0.11    0.19    0.00    0.35    0.05    0.07    0.06    0.04    0.13    0.00    0.34    0.05    0.08    0.08    0.07    0.06       0
 2009 172    69    4709   0.158    5314   0.179   27851       0   27851    1178    2354    3530    6810   13978       0     255      41      79     117       6      11    3082     487     973    1458      53     110   24513     651    1302    1954    6751   13857    0.00    0.68    0.10    0.15    0.14    0.11    0.18    0.00    0.34    0.05    0.07    0.06    0.04    0.12    0.00    0.34    0.05    0.08    0.08    0.07    0.06       0
 2009 173    70    4708   0.158    5314   0.179   27849       0   27849    1178    2354    3529    6810   13978       0     255      40      79     117       6      11    3081     487     973    1458      53     110   24513     651    1302    1954    6750   13856    0.00    0.67    0.09    0.14    0.14    0.11    0.18    0.00    0.33    0.04    0.06    0.06    0.04    0.12    0.00    0.34    0.05    0.08    0.08    0.07    0.06       0
 2009 174    71    4708   0.158    5313   0.179   27848       0   27848    1178    2354    3529    6810   13977       0     255      40      79     117       6      11    3080     487     972    1457      53     110   24513     651    1302    1954    6750   13856    0.00    0.64    0.09    0.14    0.14    0.11    0.17    0.00    0.31    0.04    0.06    0.06    0.04    0.11    0.00    0.34    0.05    0.08    0.08    0.07    0.06       0
 2009 175    72    4707   0.158    5313   0.179   27847       0   27847    1178    2353    3529    6810   13977       0     254      40      79     117       6      11    3079     487     972    1457      53     110   24513     651    1302    1954    6750   13856    0.00    0.62    0.09    0.13    0.13    0.10    0.16    0.00    0.29    0.04    0.06    0.05    0.04    0.10    0.00    0.33    0.05    0.08    0.08    0.07    0.06       0
 2009 176    73    4706   0.158    5313   0.179   27846       0   27846    1177    2353    3528    6810   13977       0     254      40      79     117       7      11    3078     487     972    1457      53     110   24512     651    1302    1954    6750   13856    0.00    0.60    0.09    0.13    0.13    0.10    0.15    0.00    0.27    0.04    0.05    0.05    0.03    0.10    0.00    0.33    0.05    0.08    0.08    0.07    0.06       0
 2009 177    74    4705   0.158    5313   0.179   27844       0   27844    1177    2353    3528    6810   13977       0     254      40      79     117       7      11    3078     487     972    1456      53     110   24512     651    1302    1954    6750   13856    0.00    0.59    0.08    0.13    0.13    0.10    0.15    0.00    0.25    0.03    0.05    0.05    0.03    0.09    0.00    0.33    0.05    0.08    0.08    0.07    0.06       0
 2009 178    75    4705   0.158    5312   0.179   27843       0   27843    1177    2352    3527    6810   13977       0     254      40      79     117       7      11    3077     486     971    1456      53     110   24512     651    1302    1954    6750   13855    0.00    0.57    0.08    0.12    0.12    0.10    0.14    0.00    0.24    0.03    0.05    0.04    0.03    0.09    0.00    0.33    0.05    0.08    0.08    0.07    0.06       0
 2009 179    76    4704   0.158    5312   0.179   27842       0   27842    1177    2352    3527    6810   13976       0     253      40      78     117       7      11    3076     486     971    1455      53     110   24512     651    1302    1954    6750   13855    0.00    0.55    0.08    0.12    0.12    0.09    0.14    0.00    0.22    0.03    0.04    0.04    0.03    0.08    0.00    0.33    0.05    0.08    0.08    0.07    0.06       0
 2009 180    77    4703   0.158    5312   0.179   27841       0   27841    1177    2351    3527    6810   13976       0     253      40      78     117       7      11    3075     486     971    1455      53     110   24512     651    1302    1954    6750   13855    0.00    0.54    0.08    0.12    0.12    0.09    0.13    0.00    0.21    0.03    0.04    0.04    0.03    0.08    0.00    0.33    0.05    0.08    0.08    0.07    0.06       0
 2009 181    78    4702   0.158    5311   0.179   27839       0   27839    1176    2351    3526    6810   13976       0     253      40      78     117       7      11    3074     486     971    1455      53     110   24511     651    1302    1954    6750   13855    0.00    0.53    0.08    0.12    0.11    0.09    0.13    0.00    0.20    0.03    0.04    0.04    0.02    0.07    0.00    0.33    0.05    0.08    0.08    0.07    0.06       0
 2009 182    79    4702   0.158    5311   0.179   27838       0   27838    1176    2351    3526    6810   13976       0     253      39      78     117       7      12    3074     486     971    1454      53     110   24511     651    1302    1954    6750   13855    0.00    0.51    0.07    0.11    0.11    0.09    0.12    0.00    0.19    0.03    0.04    0.03    0.02    0.07    0.00    0.32    0.05    0.08    0.08    0.07    0.06       0
 2009 183    80    4701   0.158    5311   0.179   27837       0   27837    1176    2350    3525    6810   13976       0     252      39      78     117       7      12    3073     486     970    1454      53     110   24511     651    1302    1954    6749   13854    0.00    0.50    0.07    0.11    0.11    0.09    0.12    0.00    0.18    0.02    0.03    0.03    0.02    0.06    0.00    0.32    0.05    0.08    0.08    0.07    0.06       0
 2009 184    81    4700   0.158    5311   0.179   27836       0   27836    1176    2350    3525    6809   13975       0     252      39      78     117       7      12    3072     486     970    1453      53     110   24511     651    1302    1954    6749   13854    0.00    0.49    0.07    0.11    0.11    0.09    0.11    0.00    0.17    0.02    0.03    0.03    0.02    0.06    0.00    0.32    0.05    0.08    0.08    0.07    0.06       0
 2009 185    82    4700   0.158    5310   0.179   27835       0   27835    1176    2350    3525    6809   13975       0     252      39      78     117       7      12    3072     486     970    1453      53     110   24510     651    1302    1954    6749   13854    0.00    0.48    0.07    0.11    0.11    0.08    0.11    0.00    0.16    0.02    0.03    0.03    0.02    0.06    0.00    0.32    0.05    0.08    0.08    0.06    0.06       0
 2009 186    83    4699   0.158    5310   0.179   27834       0   27834    1175    2349    3524    6809   13975       0     252      39      77     117       7      12    3071     486     970    1453      53     110   24510     651    1302    1954    6749   13854    0.00    0.47    0.07    0.11    0.10    0.08    0.11    0.00    0.15    0.02    0.03    0.03    0.02    0.05    0.00    0.32    0.05    0.08    0.08    0.06    0.05       0
 2009 187    84    4699   0.158    5310   0.179   27833       0   27833    1175    2349    3524    6809   13975       0     252      39      77     117       7      12    3070     485     969    1452      53     110   24510     651    1302    1955    6749   13854    0.00    0.46    0.07    0.10    0.10    0.08    0.10    0.00    0.14    0.02    0.03    0.03    0.02    0.05    0.00    0.32    0.05    0.08    0.08    0.06    0.05       0
 2009 188    85    4698   0.158    5310   0.179   27832       0   27832    1175    2349    3524    6809   13975       0     252      39      77     117       7      12    3070     485     969    1452      53     110   24510     651    1302    1955    6749   13853    0.00    0.45    0.07    0.10    0.10    0.08    0.10    0.00    0.13    0.02    0.03    0.02    0.02    0.05    0.00    0.32    0.05    0.08    0.08    0.06    0.05       0
 2009 189    86    4698   0.158    5309   0.179   27831       0   27831    1175    2349    3523    6809   13975       0     251      39      77     117       7      12    3069     485     969    1452      53     110   24510     651    1302    1955    6749   13853    0.00    0.46    0.07    0.10    0.10    0.08    0.10    0.00    0.14    0.02    0.03    0.03    0.02    0.05    0.00    0.32    0.05    0.08    0.08    0.06    0.05       0
 2009 190    87    4697   0.158    5309   0.179   27830       0   27830    1175    2348    3523    6809   13974       0     251      39      77     117       7      12    3069     485     969    1452      53     110   24509     651    1302    1955    6749   13853    0.00    0.46    0.07    0.11    0.11    0.08    0.10    0.00    0.14    0.02    0.03    0.03    0.02    0.04    0.00    0.32    0.05    0.08    0.08    0.06    0.05       0
 2009 191    88    4697   0.158    5309   0.179   27829       0   27829    1175    2348    3523    6809   13974       0     251      39      77     117       7      12    3068     485     969    1451      53     110   24509     651    1302    1955    6749   13853    0.00    0.47    0.07    0.11    0.11    0.09    0.10    0.00    0.15    0.02    0.03    0.03    0.02    0.04    0.00    0.32    0.05    0.08    0.08    0.06    0.05       0
 2009 192    89    4696   0.158    5309   0.179   27828       0   27828    1174    2348    3523    6809   13974       0     251      39      77     117       7      12    3068     485     969    1451      53     109   24509     651    1302    1955    6749   13853    0.00    0.47    0.07    0.11    0.11    0.09    0.10    0.00    0.15    0.02    0.03    0.03    0.02    0.04    0.00    0.32    0.05    0.08    0.08    0.06    0.05       0
 2009 193    90    4696   0.158    5309   0.179   27827       0   27827    1174    2348    3523    6809   13974       0     251      39      77     117       7      12    3067     485     969    1451      53     109   24509     651    1302    1955    6749   13853    0.00    0.48    0.07    0.11    0.11    0.09    0.10    0.00    0.16    0.02    0.03    0.03    0.02    0.05    0.00    0.32    0.05    0.08    0.08    0.06    0.05       0
 2009 194    91    4696   0.158    5308   0.179   27827       0   27827    1174    2348    3522    6809   13974       0     251      39      77     117       7      12    3067     485     969    1451      53     109   24509     651    1302    1955    6749   13852    0.00    0.48    0.07    0.11    0.11    0.09    0.10    0.00    0.16    0.02    0.04    0.04    0.03    0.05    0.00    0.32    0.05    0.08    0.08    0.06    0.05       0
 2009 195    92    4695   0.158    5308   0.179   27826       0   27826    1174    2348    3522    6809   13974       0     251      38      77     117       7      12    3066     485     968    1451      53     109   24508     651    1302    1955    6749   13852    0.00    0.49    0.07    0.11    0.12    0.09    0.10    0.00    0.17    0.02    0.04    0.04    0.03    0.05    0.00    0.32    0.05    0.08    0.08    0.06    0.05       0
 2009 196    93    4695   0.158    5308   0.179   27826       0   27826    1174    2347    3522    6809   13974       0     251      38      77     117       7      12    3066     485     968    1450      53     109   24508     651    1302    1955    6748   13852    0.00    0.49    0.07    0.11    0.12    0.09    0.10    0.00    0.17    0.02    0.04    0.04    0.03    0.05    0.00    0.32    0.05    0.08    0.08    0.06    0.05       0
 2009 197    94    4695   0.158    5308   0.179   27825       0   27825    1174    2347    3522    6809   13973       0     251      38      77     117       7      12    3066     485     968    1450      53     109   24508     651    1302    1955    6748   13852    0.00    0.50    0.07    0.12    0.12    0.09    0.10    0.00    0.18    0.02    0.04    0.04    0.03    0.05    0.00    0.32    0.05    0.08    0.08    0.06    0.05       0
 2009 198    95    4695   0.158    5308   0.179   27824       0   27824    1174    2347    3522    6809   13973       0     251      38      77     117       7      12    3065     485     968    1450      53     109   24508     651    1302    1955    6748   13852    0.00    0.50    0.07    0.12    0.12    0.10    0.10    0.00    0.18    0.02    0.04    0.04    0.03    0.05    0.00    0.32    0.05    0.08    0.08    0.06    0.05       0
 2009 199    96    4694   0.158    5308   0.179   27824       0   27824    1174    2347    3521    6809   13973       0     251      38      77     117       7      12    3065     485     968    1450      53     109   24508     651    1302    1955    6748   13852    0.00    0.51    0.07    0.12    0.12    0.10    0.10    0.00    0.19    0.02    0.04    0.05    0.03    0.05    0.00    0.32    0.05    0.08    0.08    0.06    0.05       0
 2009 200    97    4694   0.158    5308   0.179   27823       0   27823    1174    2347    3521    6809   13973       0     251      38      76     117       7      12    3065     485     968    1450      53     109   24507     651    1302    1955    6748   13851    0.00    0.50    0.07    0.12    0.12    0.10    0.10    0.00    0.18    0.02    0.04    0.04    0.03    0.04    0.00    0.32    0.05    0.08    0.08    0.06    0.05       0
 2009 201    98    4694   0.158    5307   0.179   27823       0   27823    1174    2347    3521    6809   13973       0     251      38      76     117       7      12    3065     485     968    1449      53     109   24507     651    1302    1955    6748   13851    0.00    0.51    0.07    0.12    0.12    0.10    0.10    0.00    0.19    0.02    0.04    0.05    0.03    0.04    0.00    0.32    0.05    0.08    0.08    0.06    0.05       0
 2009 202    99    4694   0.158    5307   0.179   27822       0   27822    1174    2347    3521    6808   13973       0     251      38      76     117       7      12    3064     485     968    1449      53     109   24507     651    1302    1955    6748   13851    0.00    0.51    0.07    0.12    0.12    0.10    0.10    0.00    0.20    0.02    0.05    0.05    0.03    0.04    0.00    0.32    0.05    0.08    0.08    0.06    0.05       0
 2009 203   100    4694   0.158    5307   0.179   27822       0   27822    1174    2347    3521    6808   13972       0     250      38      76     117       7      12    3064     485     968    1449      53     109   24507     651    1302    1955    6748   13851    0.00    0.51    0.07    0.12    0.12    0.10    0.10    0.00    0.19    0.02    0.05    0.05    0.03    0.04    0.00    0.32    0.05    0.08    0.08    0.06    0.05       0
 2009 204   101    4694   0.158    5307   0.179   27822       0   27822    1174    2347    3521    6808   13972       0     250      38      76     117       7      12    3064     485     968    1449      53     109   24507     651    1302    1955    6748   13851    0.00    0.51    0.07    0.12    0.13    0.10    0.10    0.00    0.20    0.02    0.05    0.05    0.03    0.04    0.00    0.32    0.05    0.08    0.08    0.06    0.05       0
 2009 205   102    4693   0.157    5307   0.179   27821       0   27821    1174    2346    3520    6808   13972       0     250      38      76     117       7      12    3064     485     968    1449      53     109   24507     651    1302    1955    6748   13851    0.00    0.51    0.07    0.12    0.12    0.10    0.09    0.00    0.19    0.02    0.05    0.05    0.03    0.04    0.00    0.32    0.05    0.08    0.08    0.06    0.05       0
 2009 206   103    4693   0.157    5307   0.179   27820       0   27820    1173    2346    3520    6808   13972       0     250      38      76     117       7      12    3063     484     968    1449      53     109   24506     651    1302    1955    6748   13851    0.00    0.51    0.07    0.12    0.13    0.10    0.09    0.00    0.20    0.02    0.05    0.05    0.03    0.04    0.00    0.32    0.05    0.08    0.08    0.06    0.05       0
 2009 207   104    4693   0.157    5307   0.179   27820       0   27820    1173    2346    3520    6808   13972       0     250      38      76     117       7      12    3063     484     968    1448      53     109   24506     651    1302    1955    6748   13850    0.00    0.52    0.07    0.12    0.13    0.10    0.09    0.00    0.20    0.02    0.05    0.05    0.04    0.04    0.00    0.32    0.05    0.08    0.08    0.06    0.05       0
 2009 208   105    4692   0.157    5307   0.179   27819       0   27819    1173    2346    3520    6808   13972       0     250      38      76     117       7      12    3062     484     967    1448      53     109   24506     651    1302    1955    6748   13850    0.00    0.52    0.07    0.13    0.13    0.10    0.10    0.00    0.20    0.02    0.05    0.05    0.04    0.04    0.00    0.32    0.05    0.08    0.08    0.06    0.05       0
 2009 209   106    4692   0.157    5307   0.179   27819       0   27819    1173    2346    3520    6808   13972       0     250      38      76     117       7      12    3062     484     967    1448      53     109   24506     651    1302    1955    6748   13850    0.00    0.53    0.07    0.13    0.13    0.10    0.10    0.00    0.21    0.02    0.05    0.05    0.04    0.04    0.00    0.32    0.05    0.08    0.08    0.06    0.05       0
 2009 210   107    4692   0.157    5306   0.179   27818       0   27818    1173    2346    3520    6808   13972       0     250      38      76     117       7      12    3062     484     967    1448      53     109   24506     651    1302    1955    6748   13850    0.00    0.53    0.07    0.13    0.13    0.10    0.10    0.00    0.21    0.02    0.05    0.06    0.04    0.04    0.00    0.32    0.05    0.08    0.08    0.06    0.05       0
 2009 211   108    4692   0.157    5306   0.179   27818       0   27818    1173    2346    3520    6808   13971       0     250      38      76     117       7      12    3062     484     967    1448      53     109   24506     651    1302    1955    6748   13850    0.00    0.54    0.07    0.13    0.14    0.10    0.10    0.00    0.22    0.02    0.05    0.06    0.04    0.04    0.00    0.32    0.05    0.08    0.08    0.06    0.05       0
 2009 212   109    4691   0.157    5306   0.179   27817       0   27817    1173    2346    3520    6808   13971       0     250      38      76     117       7      12    3061     484     967    1448      53     109   24505     651    1302    1955    6748   13850    0.00    0.53    0.07    0.13    0.13    0.10    0.09    0.00    0.21    0.02    0.05    0.06    0.04    0.04    0.00    0.32    0.05    0.08    0.08    0.06    0.05       0
 2009 213   110    4691   0.157    5306   0.179   27817       0   27817    1173    2346    3519    6808   13971       0     250      38      76     117       7      12    3061     484     967    1448      53     109   24505     651    1302    1955    6748   13850    0.00    0.53    0.07    0.13    0.13    0.10    0.09    0.00    0.21    0.02    0.05    0.06    0.04    0.04    0.00    0.32    0.05    0.08    0.08    0.06    0.05       0
 2009 214   111    4691   0.157    5306   0.179   27816       0   27816    1172    2345    3519    6808   13971       0     250      38      76     117       7      12    3061     484     967    1448      53     109   24505     651    1302    1955    6748   13850    0.00    0.52    0.07    0.13    0.13    0.10    0.09    0.00    0.20    0.02    0.05    0.06    0.04    0.04    0.00    0.32    0.05    0.08    0.08    0.06    0.05       0
 2009 215   112    4690   0.157    5306   0.179   27816       0   27816    1172    2345    3519    6808   13971       0     250      38      76     117       7      12    3061     484     967    1448      53     109   24505     651    1302    1955    6748   13849    0.00    0.51    0.07    0.13    0.13    0.10    0.09    0.00    0.20    0.02    0.05    0.05    0.04    0.04    0.00    0.32    0.05    0.08    0.08    0.06    0.05       0
 2009 216   113    4690   0.157    5306   0.179   27815       0   27815    1172    2345    3519    6808   13971       0     250      38      76     117       7      12    3060     484     967    1447      53     109   24505     651    1302    1955    6747   13849    0.00    0.51    0.07    0.12    0.13    0.10    0.09    0.00    0.19    0.02    0.05    0.05    0.04    0.04    0.00    0.31    0.05    0.08    0.08    0.06    0.05       0
 2009 217   114    4690   0.157    5306   0.179   27815       0   27815    1172    2345    3519    6808   13971       0     249      38      76     117       7      12    3060     483     967    1447      53     109   24505     651    1302    1955    6747   13849    0.00    0.50    0.06    0.12    0.13    0.10    0.09    0.00    0.19    0.02    0.05    0.05    0.03    0.03    0.00    0.31    0.05    0.08    0.08    0.06    0.05       0
 2009 218   115    4690   0.157    5306   0.179   27814       0   27814    1172    2345    3519    6808   13971       0     249      38      76     117       7      12    3060     483     967    1447      53     109   24505     651    1302    1955    6747   13849    0.00    0.50    0.06    0.12    0.13    0.10    0.09    0.00    0.18    0.02    0.05    0.05    0.03    0.03    0.00    0.31    0.05    0.08    0.08    0.06    0.05       0
 2009 219   116    4689   0.157    5306   0.179   27814       0   27814    1172    2345    3519    6808   13971       0     249      38      76     117       7      12    3060     483     967    1447      53     109   24505     651    1302    1955    6747   13849    0.00    0.49    0.06    0.12    0.13    0.10    0.08    0.00    0.18    0.02    0.05    0.05    0.03    0.03    0.00    0.31    0.05    0.08    0.08    0.06    0.05       0
 2009 220   117    4689   0.157    5306   0.179   27814       0   27814    1172    2345    3519    6808   13970       0     249      37      76     117       7      12    3059     483     966    1447      53     109   24504     651    1302    1955    6747   13849    0.00    0.49    0.06    0.12    0.13    0.09    0.08    0.00    0.18    0.02    0.04    0.05    0.03    0.03    0.00    0.31    0.05    0.08    0.08    0.06    0.05       0
 2009 221   118    4689   0.157    5306   0.179   27813       0   27813    1172    2345    3519    6808   13970       0     249      37      76     117       7      12    3059     483     966    1447      53     109   24504     651    1302    1955    6747   13849    0.00    0.49    0.06    0.12    0.13    0.09    0.08    0.00    0.17    0.02    0.04    0.05    0.03    0.03    0.00    0.31    0.05    0.07    0.08    0.06    0.05       0
 2009 222   119    4689   0.157    5306   0.179   27813       0   27813    1172    2345    3519    6808   13970       0     249      37      76     117       7      12    3059     483     966    1447      53     109   24504     651    1302    1955    6747   13849    0.00    0.48    0.06    0.12    0.13    0.09    0.08    0.00    0.17    0.02    0.04    0.05    0.03    0.03    0.00    0.31    0.05    0.07    0.08    0.06    0.05       0
 2009 223   120    4688   0.157    5305   0.179   27812       0   27812    1171    2344    3519    6808   13970       0     249      37      76     117       7      12    3058     483     966    1447      53     109   24504     651    1302    1955    6747   13848    0.00    0.47    0.06    0.12    0.12    0.09    0.08    0.00    0.16    0.02    0.04    0.05    0.03    0.03    0.00    0.31    0.05    0.07    0.08    0.06    0.05       0
 2009 224   121    4688   0.157    5305   0.179   27811       0   27811    1171    2344    3518    6808   13970       0     249      37      76     117       7      12    3057     483     966    1446      53     109   24504     651    1302    1955    6747   13848    0.00    0.46    0.06    0.11    0.12    0.09    0.08    0.00    0.15    0.01    0.04    0.04    0.03    0.03    0.00    0.31    0.05    0.07    0.08    0.06    0.05       0
 2009 225   122    4687   0.157    5305   0.179   27810       0   27810    1171    2344    3518    6808   13970       0     249      37      75     117       7      12    3057     483     966    1446      53     109   24504     651    1302    1955    6747   13848    0.00    0.45    0.06    0.11    0.12    0.09    0.08    0.00    0.14    0.01    0.04    0.04    0.03    0.03    0.00    0.31    0.05    0.07    0.08    0.06    0.05       0
 2009 226   123    4686   0.157    5305   0.179   27809       0   27809    1171    2343    3518    6808   13970       0     249      37      75     117       7      12    3056     483     965    1445      53     109   24504     651    1303    1955    6747   13848    0.00    0.44    0.06    0.11    0.11    0.09    0.08    0.00    0.14    0.01    0.03    0.04    0.03    0.02    0.00    0.31    0.05    0.07    0.08    0.06    0.05       0
 2009 227   124    4686   0.157    5305   0.179   27808       0   27808    1171    2343    3518    6807   13970       0     249      37      75     117       7      12    3055     483     965    1445      53     109   24504     651    1303    1955    6747   13848    0.00    0.44    0.06    0.11    0.11    0.09    0.08    0.00    0.13    0.01    0.03    0.04    0.02    0.02    0.00    0.31    0.05    0.07    0.07    0.06    0.05       0
 2009 228   125    4685   0.157    5305   0.179   27807       0   27807    1170    2343    3517    6807   13970       0     249      37      75     117       7      12    3054     483     965    1445      53     109   24503     651    1303    1955    6747   13848    0.00    0.43    0.06    0.10    0.11    0.08    0.07    0.00    0.12    0.01    0.03    0.03    0.02    0.02    0.00    0.31    0.05    0.07    0.07    0.06    0.05       0
 2009 229   126    4685   0.157    5304   0.179   27807       0   27807    1170    2342    3517    6807   13969       0     249      37      75     118       7      12    3054     482     965    1444      53     109   24503     651    1303    1955    6747   13848    0.00    0.42    0.06    0.10    0.11    0.08    0.07    0.00    0.12    0.01    0.03    0.03    0.02    0.02    0.00    0.31    0.04    0.07    0.07    0.06    0.05       0
 2009 230   127    4684   0.157    5304   0.179   27806       0   27806    1170    2342    3517    6807   13969       0     249      37      75     118       7      12    3053     482     964    1444      53     109   24503     651    1303    1955    6747   13848    0.00    0.42    0.06    0.10    0.11    0.08    0.07    0.00    0.11    0.01    0.03    0.03    0.02    0.02    0.00    0.30    0.04    0.07    0.07    0.06    0.05       0
 2009 231   128    4684   0.157    5304   0.179   27805       0   27805    1170    2342    3517    6807   13969       0     249      37      75     118       7      12    3053     482     964    1444      53     109   24503     651    1303    1955    6747   13848    0.00    0.41    0.06    0.10    0.10    0.08    0.07    0.00    0.11    0.01    0.03    0.03    0.02    0.02    0.00    0.30    0.04    0.07    0.07    0.06    0.05       0
 2009 232   129    4684   0.157    5304   0.179   27805       0   27805    1170    2341    3517    6807   13969       0     249      37      75     118       7      12    3052     482     964    1443      53     109   24503     651    1303    1955    6747   13847    0.00    0.41    0.06    0.10    0.10    0.08    0.07    0.00    0.10    0.01    0.03    0.03    0.02    0.02    0.00    0.30    0.04    0.07    0.07    0.06    0.05       0
 2009 233   130    4683   0.157    5304   0.179   27804       0   27804    1170    2341    3516    6807   13969       0     249      37      75     118       7      12    3052     482     964    1443      53     109   24503     651    1303    1955    6746   13847    0.00    0.40    0.06    0.10    0.10    0.08    0.07    0.00    0.10    0.01    0.02    0.03    0.02    0.02    0.00    0.30    0.04    0.07    0.07    0.06    0.05       0
 2009 234   131    4683   0.157    5304   0.179   27803       0   27803    1170    2341    3516    6807   13969       0     249      37      75     118       7      12    3051     482     964    1443      53     109   24503     651    1303    1955    6746   13847    0.00    0.40    0.06    0.10    0.10    0.08    0.07    0.00    0.10    0.01    0.02    0.03    0.02    0.02    0.00    0.30    0.04    0.07    0.07    0.06    0.05       0
 2009 235   132    4683   0.157    5304   0.179   27803       0   27803    1170    2341    3516    6807   13969       0     249      37      75     118       7      12    3051     482     964    1442      53     109   24503     651    1303    1955    6746   13847    0.00    0.40    0.06    0.10    0.10    0.08    0.07    0.00    0.09    0.01    0.02    0.03    0.02    0.02    0.00    0.30    0.04    0.07    0.07    0.06    0.05       0
 2009 236   133    4683   0.157    5303   0.179   27802       0   27802    1170    2341    3516    6807   13969       0     249      37      75     118       7      12    3050     482     963    1442      53     109   24502     651    1303    1955    6746   13847    0.00    0.39    0.06    0.09    0.10    0.08    0.07    0.00    0.09    0.01    0.02    0.02    0.02    0.02    0.00    0.30    0.04    0.07    0.07    0.06    0.05       0
 2009 237   134    4682   0.157    5303   0.179   27802       0   27802    1170    2341    3516    6807   13969       0     249      37      74     118       7      13    3050     482     963    1442      53     109   24502     651    1303    1955    6746   13847    0.00    0.39    0.06    0.09    0.10    0.08    0.07    0.00    0.09    0.01    0.02    0.02    0.02    0.02    0.00    0.30    0.04    0.07    0.07    0.06    0.05       0
 2009 238   135    4682   0.157    5303   0.179   27801       0   27801    1170    2340    3516    6807   13969       0     249      37      74     119       7      13    3049     482     963    1442      53     109   24502     651    1303    1955    6746   13847    0.00    0.38    0.05    0.09    0.09    0.07    0.07    0.00    0.08    0.01    0.02    0.02    0.01    0.02    0.00    0.30    0.04    0.07    0.07    0.06    0.05       0
 2009 239   136    4681   0.157    5303   0.179   27800       0   27800    1169    2340    3515    6807   13968       0     249      36      74     119       7      13    3048     482     963    1441      53     109   24502     651    1303    1955    6746   13847    0.00    0.38    0.05    0.09    0.09    0.07    0.07    0.00    0.08    0.01    0.02    0.02    0.01    0.02    0.00    0.30    0.04    0.07    0.07    0.06    0.05       0
 2009 240   137    4680   0.157    5303   0.179   27799       0   27799    1169    2339    3515    6807   13968       0     249      36      74     119       8      13    3047     482     963    1441      53     109   24502     651    1303    1956    6746   13847    0.00    0.37    0.05    0.09    0.09    0.07    0.07    0.00    0.07    0.01    0.02    0.02    0.01    0.01    0.00    0.30    0.04    0.07    0.07    0.06    0.05       0
 2009 241   138    4679   0.157    5303   0.179   27798       0   27798    1169    2339    3515    6807   13968       0     249      36      74     119       8      13    3047     482     962    1440      53     109   24502     651    1303    1956    6746   13846    0.00    0.37    0.05    0.09    0.09    0.07    0.06    0.00    0.07    0.01    0.02    0.02    0.01    0.01    0.00    0.30    0.04    0.07    0.07    0.06    0.05       0
 2009 242   139    4679   0.157    5302   0.179   27797       0   27797    1169    2339    3514    6807   13968       0     249      36      74     119       8      13    3046     482     962    1440      53     109   24501     651    1303    1956    6746   13846    0.00    0.36    0.05    0.09    0.09    0.07    0.06    0.00    0.07    0.01    0.02    0.02    0.01    0.01    0.00    0.29    0.04    0.07    0.07    0.06    0.05       0
 2009 243   140    4678   0.157    5302   0.179   27796       0   27796    1169    2338    3514    6807   13968       0     249      36      74     119       8      13    3045     481     962    1440      53     109   24501     651    1303    1956    6746   13846    0.00    0.36    0.05    0.09    0.09    0.07    0.06    0.00    0.06    0.01    0.02    0.02    0.01    0.01    0.00    0.29    0.04    0.07    0.07    0.06    0.05       0
 2009 244   141    4678   0.157    5302   0.179   27795       0   27795    1169    2338    3514    6807   13968       0     249      36      74     119       8      13    3044     481     962    1439      53     109   24501     651    1303    1956    6746   13846    0.00    0.35    0.05    0.08    0.09    0.07    0.06    0.00    0.06    0.01    0.01    0.02    0.01    0.01    0.00    0.29    0.04    0.07    0.07    0.06    0.05       0
 2009 245   142    4677   0.157    5302   0.179   27794       0   27794    1168    2338    3514    6807   13968       0     249      36      73     119       8      13    3044     481     961    1439      53     109   24501     651    1303    1956    6745   13846    0.00    0.35    0.05    0.08    0.09    0.07    0.06    0.00    0.06    0.01    0.01    0.01    0.01    0.01    0.00    0.29    0.04    0.07    0.07    0.06    0.05       0
 2009 246   143    4677   0.157    5302   0.179   27793       0   27793    1168    2337    3513    6806   13967       0     249      36      73     119       8      13    3043     481     961    1438      53     109   24501     651    1303    1956    6745   13846    0.00    0.35    0.05    0.08    0.08    0.07    0.06    0.00    0.05    0.01    0.01    0.01    0.01    0.01    0.00    0.29    0.04    0.07    0.07    0.06    0.05       0
 2009 247   144    4677   0.157    5301   0.178   27793       0   27793    1168    2337    3513    6806   13967       0     249      36      73     119       8      13    3043     481     961    1438      53     109   24500     651    1303    1956    6745   13846    0.00    0.34    0.05    0.08    0.08    0.07    0.06    0.00    0.05    0.01    0.01    0.01    0.01    0.01    0.00    0.29    0.04    0.07    0.07    0.06    0.05       0
 2009 248   145    4676   0.157    5301   0.178   27792       0   27792    1168    2337    3513    6806   13967       0     249      36      73     119       8      13    3042     481     961    1438      53     109   24500     651    1303    1956    6745   13845    0.00    0.34    0.05    0.08    0.08    0.07    0.06    0.00    0.05    0.01    0.01    0.01    0.01    0.01    0.00    0.29    0.04    0.07    0.07    0.06    0.05       0
 2009 249   146    4675   0.157    5301   0.178   27791       0   27791    1168    2337    3513    6806   13967       0     249      36      73     119       8      13    3041     481     960    1438      53     109   24500     651    1303    1956    6745   13845    0.00    0.33    0.05    0.08    0.08    0.07    0.06    0.00    0.05    0.01    0.01    0.01    0.01    0.01    0.00    0.29    0.04    0.07    0.07    0.06    0.05       0
 2009 250   147    4675   0.157    5301   0.178   27790       0   27790    1168    2336    3513    6806   13967       0     249      36      73     119       8      13    3041     481     960    1437      53     109   24500     651    1303    1956    6745   13845    0.00    0.33    0.05    0.08    0.08    0.06    0.06    0.00    0.04    0.01    0.01    0.01    0.01    0.01    0.00    0.29    0.04    0.07    0.07    0.06    0.05       0
