*GROWTH ASPECTS OUTPUT FILE

*DSSAT Cropping System Model Ver. 4.7.2.000 -release      OCT 15, 2021; 17:59:33
                                                                                
*RUN   1        :             CSM335_date_1 MZCER047 ITSA1301    1              
 MODEL          : MZCER047 - Maize                                              
 EXPERIMENT     : ITSA1301 SG CALIBRATION SETUP OF SORGHUM SOWING DATES         
 DATA PATH      :                                                               
 TREATMENT  1   :             CSM335_date_1 MZCER047                            
  
!                                                                                                                                                                                                                                      Root Dens. (cm/cm3) by soil depth (cm):
!                                                                                                                                                                                                                                      0-5    5-15   15-30   30-60   60-90  90-120
@YEAR DOY   DAS   DAP   L#SD   GSTD   LAID   LWAD   SWAD   GWAD   RWAD   VWAD   CWAD   G#AD   GWGD   HIAD   PWAD   P#AD   WSPD   WSGD   NSTD   EWSD  PST1A  PST2A   KSTD   LN%D   SH%D   HIPD   PWDD   PWTD     SLAD   CHTD   CWID   RDPD    RL1D    RL2D    RL3D    RL4D    RL5D    RL6D   CDAD   LDAD   SDAD   SNW0C   SNW1C  DTTD
 2009 163     7     0    0.0      0   0.00      0      0      0      0      0      0      0    0.0  0.000      0      0  0.000  0.000  0.000  0.000  0.000  0.000  0.000   0.00   0.00   0.00      0      0      0.0   0.00   0.00   0.03    0.00    0.00    0.00    0.00    0.00    0.00      0      0      0       0       0 18.26
 2009 164     8     1    0.0      0   0.00      0      0      0      0      0      0      0    0.0  0.000      0      0  0.000  0.000  0.000  0.000  0.000  0.000  0.000   0.00   0.00   0.00      0      0      0.0   0.00   0.00   0.06    0.00    0.00    0.00    0.00    0.00    0.00      0      0      0       0       0 20.11
 2009 165     9     2    0.0      0   0.00      0      0      0      0      0      0      0    0.0  0.000      0      0  0.000  0.000  0.000  0.000  0.000  0.000  0.000   0.00   0.00   0.00      0      0      0.0   0.00   0.00   0.09    0.00    0.00    0.00    0.00    0.00    0.00      0      0      0       0       0 18.16
 2009 166    10     3    0.0      0   0.00      0      0      0      0      0      0      0    0.0  0.000      0      0  0.000  0.000  0.000  0.000  0.000  0.000  0.000   0.00   0.00   0.00      0      0      0.0   0.00   0.00   0.12    0.00    0.00    0.00    0.00    0.00    0.00      0      0      0       0       0 18.93
 2009 167    11     4    0.0      0   0.00      0      0      0      0      0      0      0    0.0  0.000      0      0  0.000  0.000  0.000  0.000  0.000  0.000  0.000   0.00   0.00   0.00      0      0      0.0   0.00   0.00   0.15    0.00    0.00    0.00    0.00    0.00    0.00      0      0      0       0       0 21.50
 2009 168    12     5    1.0      1   0.00     12     12      0     12     25     25      0    0.0  0.000      0      0  0.000  0.000  0.012  0.000  0.000  0.000  0.000   4.40   0.00   0.00      0      0     20.8   0.00   0.00   0.17    0.25    0.12    0.00    0.00    0.00    0.00      0      0      0       0       0 21.40
 2009 169    13     6    2.0      1   0.00     12     12      0     13     25     25      0    0.0  0.000      0      0  0.000  0.000  0.004  0.000  0.000  0.000  0.000   4.40   0.00   0.00      0      0     39.5   0.00   0.00   0.19    0.25    0.12    0.00    0.00    0.00    0.00      0      0      0       0       0 21.78
 2009 170    14     7    2.0      1   0.01     12     12      0     13     25     25      0    0.0  0.000      0      0  0.000  0.000  0.000  0.000  0.000  0.000  0.000   4.40   0.00   0.00      0      0     62.5   0.00   0.00   0.21    0.25    0.12    0.00    0.00    0.00    0.00      0      0      0       0       0 23.55
 2009 171    15     8    3.0      1   0.01     12     12      0     13     25     25      0    0.0  0.000      0      0  0.000  0.000  0.000  0.000  0.000  0.000  0.000   4.40   0.00   0.00      0      0     85.9   0.01   0.00   0.24    0.25    0.13    0.00    0.00    0.00    0.00      0      0      0       0       0 21.81
 2009 172    16     9    3.0      1   0.01     12     12      0     14     25     25      0    0.0  0.000      0      0  0.000  0.000  0.000  0.000  0.000  0.000  0.000   4.40   0.00   0.00      0      0    110.3   0.01   0.00   0.26    0.26    0.13    0.01    0.00    0.00    0.00      0      0      0       0       0 21.23
 2009 173    17    10    3.0      1   0.02     12     12      0     15     25     25      0    0.0  0.000      0      0  0.000  0.000  0.000  0.000  0.000  0.000  0.000   4.40   0.00   0.00      0      0    134.1   0.01   0.00   0.28    0.27    0.14    0.01    0.00    0.00    0.00      0      0      0       0       0 19.48
 2009 174    18    11    4.0      1   0.03     12     12      0     17     25     25      0    0.0  0.000      0      0  0.000  0.000  0.000  0.000  0.000  0.000  0.000   4.40   0.00   0.00      0      0    218.5   0.01   0.00   0.30    0.28    0.15    0.02    0.00    0.00    0.00      0      0      0       0       0 21.10
 2009 175    19    12    4.0      1   0.04     12     12      0     19     25     25      0    0.0  0.000      0      0  0.000  0.000  0.000  0.000  0.000  0.000  0.000   4.40   0.00   0.00      0      0    324.8   0.02   0.00   0.32    0.29    0.17    0.04    0.00    0.00    0.00      0      0      0       0       0 23.14
 2009 176    20    13    4.0      1   0.05     17     12      0     20     30     30      0    0.0  0.000      0      0  0.000  0.000  0.000  0.000  0.000  0.000  0.000   3.69   0.00   0.00      0      0    319.7   0.03   0.00   0.35    0.29    0.17    0.04    0.00    0.00    0.00      0      0      0       0       0 24.14
 2009 177    21    14    5.0      2   0.07     22     12      0     22     35     35      0    0.0  0.000      0      0  0.000  0.000  0.000  0.000  0.000  0.000  0.000   3.26   0.00   0.00      0      0    323.1   0.04   0.00   0.39    0.31    0.18    0.06    0.00    0.00    0.00      0      0      0       0       0 21.87
 2009 178    22    15    5.0      2   0.09     28     12      0     23     40     40      0    0.0  0.000      0      0  0.000  0.000  0.007  0.000  0.000  0.000  0.000   3.39   0.00   0.00      0      0    309.6   0.05   0.00   0.43    0.31    0.19    0.06    0.00    0.00    0.00      0      0      0       0       0 19.52
 2009 179    23    16    5.0      2   0.11     36     12      0     27     48     48      0    0.0  0.000      0      0  0.000  0.000  0.000  0.000  0.000  0.000  0.000   3.17   0.00   0.00      0      0    293.3   0.06   0.00   0.47    0.33    0.20    0.08    0.01    0.00    0.00      0      0      0       0       0 20.66
 2009 180    24    17    6.0      2   0.13     47     12      0     30     59     59      0    0.0  0.000      0      0  0.000  0.000  0.000  0.000  0.000  0.000  0.000   3.80   0.00   0.00      0      0    277.8   0.07   0.00   0.52    0.34    0.22    0.09    0.01    0.00    0.00      0      0      0       0       0 23.41
 2009 181    25    18    6.0      2   0.15     57     12      0     36     69     69      0    0.0  0.000      0      0  0.000  0.000  0.000  0.000  0.000  0.000  0.000   3.73   0.00   0.00      0      0    266.3   0.08   0.00   0.56    0.37    0.25    0.12    0.03    0.00    0.00      0      0      0       0       1 20.40
 2009 182    26    19    6.0      3   0.17     67     12      0     39     80     80      0    0.0  0.000      0      0  0.000  0.000  0.000  0.000  0.000  0.000  0.000   3.62   0.00   0.00      0      0    255.8   0.09   0.00   0.59    0.38    0.26    0.13    0.03    0.00    0.00      0      0      0       0       1 18.02
 2009 183    27    20    6.0      3   0.20     79     12      0     49     91     91      0    0.0  0.000      0      0  0.000  0.000  0.000  0.000  0.000  0.000  0.000   3.55   0.00   0.00      0      0    248.6   0.11   0.00   0.63    0.42    0.30    0.17    0.06    0.00    0.00      0      0      0       0       1 18.32
 2009 184    28    21    7.0      3   0.23     94     13      0     60    107    107      0    0.0  0.000      0      0  0.000  0.000  0.000  0.000  0.000  0.000  0.000   3.50   0.00   0.00      0      0    240.6   0.12   0.00   0.67    0.47    0.35    0.22    0.08    0.00    0.00      0      0      0       0       1 21.59
 2009 185    29    22    7.0      3   0.26    113     13      0     71    126    126      0    0.0  0.000      0      0  0.000  0.000  0.000  0.000  0.000  0.000  0.000   3.45   0.00   0.00      0      0    232.9   0.14   0.00   0.72    0.51    0.39    0.26    0.10    0.01    0.00      0      0      0       0       2 22.76
 2009 186    30    23    7.0      3   0.30    134     14      0     80    148    148      0    0.0  0.000      0      0  0.000  0.000  0.000  0.000  0.000  0.000  0.000   3.42   0.00   0.00      0      0    225.5   0.16   0.00   0.77    0.54    0.42    0.29    0.12    0.01    0.00      0      0      0       0       2 23.43
 2009 187    31    24    7.0      3   0.34    156     15      0     92    171    171      0    0.0  0.000      0      0  0.000  0.000  0.000  0.000  0.000  0.000  0.000   3.35   0.00   0.00      0      0    219.2   0.18   0.00   0.81    0.59    0.47    0.34    0.14    0.02    0.00      0      0      0       0       2 21.75
 2009 188    32    25    8.0      3   0.38    180     17      0    106    196    196      0    0.0  0.000      0      0  0.000  0.000  0.000  0.000  0.000  0.000  0.000   3.30   0.00   0.00      0      0    213.3   0.21   0.00   0.85    0.64    0.52    0.38    0.17    0.04    0.00      0      0      0       0       3 21.57
 2009 189    33    26    8.0      3   0.42    202     19      0    109    220    220      0    0.0  0.000      0      0  0.000  0.000  0.000  0.000  0.000  0.000  0.000   3.26   0.00   0.00      0      0    208.6   0.23   0.00   0.89    0.65    0.53    0.39    0.17    0.04    0.00      0      0      0       0       3 18.00
 2009 190    34    27    8.0      3   0.46    228     21      0    131    249    249      0    0.0  0.000      0      0  0.000  0.000  0.000  0.000  0.000  0.000  0.000   3.22   0.00   0.00      0      0    203.8   0.25   0.00   0.93    0.72    0.60    0.47    0.22    0.06    0.00      0      0      0       0       4 19.71
 2009 191    35    28    8.0      3   0.50    249     24      0    132    273    273      0    0.0  0.000      0      0  0.000  0.000  0.000  0.000  0.000  0.000  0.000   3.19   0.00   0.00      0      0    200.4   0.27   0.00   0.96    0.72    0.60    0.47    0.22    0.06    0.00      0      0      0       0       4 15.09
 2009 192    36    29    9.0      3   0.54    275     28      0    157    304    304      0    0.0  0.000      0      0  0.000  0.000  0.000  0.000  0.000  0.000  0.000   3.15   0.00   0.00      0      0    196.5   0.29   0.00   0.99    0.77    0.67    0.54    0.28    0.10    0.00      0      0      0       0       5 17.31
 2009 193    37    30    9.0      3   0.59    305     34      0    187    338    338      0    0.0  0.000      0      0  0.000  0.000  0.000  0.000  0.000  0.000  0.000   3.12   0.00   0.00      0      0    192.7   0.32   0.00   1.03    0.83    0.74    0.62    0.34    0.14    0.02      0      0      0       0       6 18.18
 2009 194    38    31    9.0      3   0.64    337     40      0    216    377    377      0    0.0  0.000      0      0  0.000  0.000  0.000  0.000  0.000  0.000  0.000   3.08   0.00   0.00      0      0    189.0   0.34   0.00   1.07    0.90    0.81    0.69    0.40    0.19    0.03      0      0      0       0       7 18.30
 2009 195    39    32    9.0      3   0.69    369     48      0    217    417    417      0    0.0  0.000      0      0  0.000  0.000  0.000  0.000  0.000  0.000  0.000   3.04   0.00   0.00      0      0    185.7   0.37   0.00   1.10    0.90    0.81    0.69    0.40    0.19    0.03      0      0      0       0       8 18.56
 2009 196    40    33   10.0      3   0.74    405     58      0    235    463    463      0    0.0  0.000      0      0  0.000  0.000  0.000  0.000  0.000  0.000  0.000   3.01   0.00   0.00      0      0    182.4   0.40   0.00   1.14    0.93    0.84    0.73    0.44    0.22    0.05      0      0      0       0       9 17.83
 2009 197    41    34   10.0      3   0.80    447     71      0    264    518    518      0    0.0  0.000      0      0  0.000  0.000  0.000  0.000  0.000  0.000  0.000   2.97   0.00   0.00      0      0    178.9   0.43   0.00   1.18    0.98    0.90    0.80    0.49    0.26    0.08      0      0      0       0      10 19.57
 2009 198    42    35   10.0      3   0.86    487     85      0    296    573    573      0    0.0  0.000      0      0  0.000  0.000  0.000  0.000  0.000  0.000  0.000   2.93   0.00   0.00      0      0    175.9   0.46   0.00   1.20    1.03    0.96    0.87    0.56    0.31    0.11      0      0      0       0      12 17.75
 2009 199    43    36   10.0      3   0.92    532    103      0    298    635    635      0    0.0  0.000      0      0  0.000  0.000  0.000  0.000  0.000  0.000  0.000   2.90   0.00   0.00      0      0    172.9   0.50   0.00   1.20    1.03    0.96    0.87    0.56    0.31    0.11      0      0      0       0      13 18.86
 2009 200    44    37   11.0      3   0.98    578    123      0    307    701    701      0    0.0  0.000      0      0  0.000  0.000  0.000  0.000  0.000  0.000  0.000   2.86   0.00   0.00      0      0    170.1   0.53   0.00   1.20    1.04    0.97    0.89    0.58    0.32    0.12      0      0      0       0      14 17.74
 2009 201    45    38   11.0      3   1.05    631    148      0    339    779    779      0    0.0  0.000      0      0  0.000  0.000  0.000  0.000  0.000  0.000  0.000   2.83   0.00   0.00      0      0    167.2   0.57   0.00   1.20    1.09    1.03    0.95    0.64    0.37    0.16      0      0      0       0      16 19.12
 2009 202    46    39   11.0      3   1.13    687    178      0    367    865    865      0    0.0  0.000      0      0  0.000  0.000  0.000  0.000  0.000  0.000  0.000   2.79   0.00   0.00      0      0    164.4   0.61   0.00   1.20    1.14    1.08    1.01    0.69    0.42    0.19      0      0      0       0      18 19.12
 2009 203    47    40   11.0      3   1.21    747    212      0    389    959    959      0    0.0  0.000      0      0  0.000  0.000  0.000  0.000  0.000  0.000  0.000   2.76   0.00   0.00      0      0    161.7   0.65   0.00   1.20    1.19    1.12    1.05    0.73    0.45    0.22      0      0      0       0      20 19.12
 2009 204    48    41   12.0      3   1.26    786    318      0    396   1104   1104      0    0.0  0.000      0      0  0.000  0.000  0.000  0.000  0.000  0.000  0.000   2.72   0.00   0.00      0      0    160.1   0.68   0.00   1.20    1.20    1.12    1.06    0.74    0.46    0.23      0      0      0       0      21 20.48
 2009 205    49    42   12.0      3   1.31    825    429      0    402   1254   1254      0    0.0  0.000      0      0  0.000  0.000  0.000  0.000  0.000  0.000  0.000   2.68   0.00   0.00      0      0    158.6   0.70   0.00   1.20    1.22    1.13    1.08    0.75    0.47    0.23      0      0      0       0      23 21.00
 2009 206    50    43   12.0      3   1.33    845    489      0    404   1333   1333      0    0.0  0.000      0      0  0.000  0.000  0.000  0.000  0.000  0.000  0.000   2.65   0.00   0.00      0      0    157.8   0.72   0.00   1.20    1.22    1.14    1.08    0.76    0.47    0.24      0      0      0       0      25 20.00
 2009 207    51    44   13.0      3   1.38    881    602      0    411   1483   1485      0    0.0  0.000      2      0  0.000  0.000  0.000  0.000  0.000  0.000  0.000   2.61   0.00   0.00      0      2    156.5   0.74   0.00   1.20    1.23    1.15    1.09    0.77    0.49    0.25      0      0      0       0      28 21.66
 2009 208    52    45   13.0      3   1.42    916    718      0    417   1635   1639      0    0.0  0.000      4      0  0.000  0.000  0.000  0.000  0.000  0.000  0.000   2.58   0.00   0.00      0      4    155.3   0.77   0.00   1.20    1.24    1.16    1.11    0.78    0.50    0.25      0      0      0       0      30 19.88
 2009 209    53    46   13.0      3   1.46    944    810      0    422   1753   1760      0    0.0  0.000      7      0  0.000  0.000  0.000  0.000  0.000  0.000  0.000   2.55   0.00   0.00      0      7    154.4   0.79   0.00   1.20    1.25    1.17    1.11    0.79    0.50    0.26      0      0      0       0      32 18.75
 2009 210    54    47   13.0      3   1.48    960    869      0    424   1829   1838      0    0.0  0.000      9      0  0.000  0.000  0.000  0.000  0.000  0.000  0.000   2.52   0.00   0.00      0      9    153.9   0.80   0.00   1.20    1.26    1.17    1.12    0.79    0.50    0.26      0      0      0       0      34 18.50
 2009 211    55    48   14.0      3   1.52    998    993      0    438   1991   2011      0    0.0  0.000     21      0  0.000  0.000  0.000  0.000  0.000  0.000  0.000   2.50   0.00   0.01      0     21    152.7   0.82   0.00   1.20    1.29    1.21    1.15    0.82    0.52    0.28      0      0      0       0      36 17.75
 2009 212    56    49   14.0      3   1.55   1016   1056      0    441   2072   2096      0    0.0  0.000     24      0  0.000  0.000  0.000  0.000  0.000  0.000  0.000   2.46   0.00   0.01      0     24    152.2   0.83   0.00   1.20    1.29    1.21    1.15    0.82    0.53    0.28      0      0      0       0      38 19.38
 2009 213    57    50   14.0      3   1.56   1031   1107      0    442   2138   2166      0    0.0  0.000     28      0  0.000  0.000  0.000  0.000  0.000  0.000  0.000   2.43   0.00   0.01      0     28    151.8   0.84   0.00   1.20    1.30    1.21    1.15    0.82    0.53    0.28      0      0      0       0      40 16.88
 2009 214    58    51   14.0      3   1.61   1068   1214      0    450   2282   2337      0    0.0  0.000     56      0  0.000  0.000  0.000  0.000  0.000  0.000  0.000   2.43   0.00   0.02      0     56    150.7   0.87   0.00   1.20    1.31    1.23    1.17    0.84    0.54    0.29      0      0      0       0      42 18.38
 2009 215    59    52   14.0      3   1.64   1095   1292      0    454   2388   2463      0    0.0  0.000     75      0  0.000  0.000  0.000  0.000  0.000  0.000  0.000   2.39   0.00   0.03      0     75    150.0   0.88   0.00   1.20    1.32    1.24    1.18    0.85    0.55    0.29      0      0      0       0      45 18.85
 2009 216    60    53   14.0      3   1.68   1124   1366      0    459   2490   2593      0    0.0  0.000    103      0  0.000  0.000  0.000  0.000  0.000  0.000  0.000   2.36   0.00   0.04      0    103    149.2   0.90   0.00   1.20    1.32    1.24    1.19    0.85    0.56    0.30      0      0      0       0      47 18.25
 2009 217    61    54   14.0      3   1.72   1161   1439      0    467   2600   2765      0    0.0  0.000    165      0  0.000  0.000  0.000  0.000  0.000  0.000  0.000   2.37   0.00   0.06      0    165    148.2   0.93   0.00   1.20    1.33    1.25    1.20    0.87    0.57    0.31      0      0      0       0      49 18.12
 2009 218    62    55   14.0      3   1.75   1185   1494      0    470   2679   2874      0    0.0  0.000    194      0  0.000  0.000  0.000  0.000  0.000  0.000  0.000   2.31   0.00   0.07      0    194    147.6   0.94   0.00   1.20    1.34    1.26    1.20    0.87    0.57    0.31      0      0      0       0      52 18.50
 2009 219    63    56   14.0      3   1.78   1207   1542      0    474   2749   2973      0    0.0  0.000    225      0  0.000  0.000  0.000  0.000  0.000  0.000  0.000   2.28   0.00   0.08      0    225    147.1   0.96   0.00   1.20    1.34    1.26    1.21    0.88    0.58    0.32      0      0      0       0      54 17.75
 2009 220    64    57   14.0      3   1.82   1247   1569      0    484   2815   3152      0    0.0  0.000    337      0  0.000  0.000  0.000  0.000  0.000  0.000  0.000   2.32   0.00   0.11      0    337    146.2   0.98   0.00   1.20    1.36    1.28    1.23    0.90    0.60    0.33      0      0      0       0      56 18.12
 2009 221    65    58   14.0      4   1.73   1230   1611      0    487   2842   3262      0    0.0  0.000    420      0  0.000  0.000  0.000  0.000  0.000  0.000  0.000   2.30   0.00   0.13      0    420    140.5   0.98   0.00   1.20    1.36    1.28    1.23    0.90    0.60    0.33      0      0      0       0      56 18.00
 2009 222    66    59   14.0      4   1.72   1213   1666      0    493   2878   3433      0    0.0  0.000    555      0  0.000  0.000  0.000  0.000  0.000  0.000  0.000   2.27   0.00   0.16      0    555    141.9   0.98   0.00   1.20    1.36    1.29    1.24    0.92    0.61    0.34      0      0      0       0      56 17.25
 2009 223    67    60   14.0      4   1.71   1194   1705      0    498   2898   3576      0    0.0  0.000    678      0  0.000  0.000  0.000  0.000  0.000  0.000  0.000   2.25   0.00   0.19      0    678    143.4   0.98   0.00   1.20    1.37    1.30    1.25    0.92    0.62    0.35      0      0      0       0      56 19.77
 2009 224    68    61   14.0      4   1.70   1173   1738      0    502   2911   3717      0    0.0  0.000    806      0  0.000  0.000  0.000  0.000  0.000  0.000  0.000   2.24   0.00   0.22      0    806    145.2   0.98   0.00   1.20    1.37    1.30    1.26    0.93    0.63    0.35      0      0      0       0      56 20.12
 2009 225    69    62   14.0      4   1.69   1151   1760      0    505   2911   3819      0    0.0  0.000    908      0  0.000  0.000  0.000  0.000  0.000  0.000  0.000   2.24   0.00   0.24      0    908    147.3   0.98   0.00   1.20    1.37    1.31    1.26    0.94    0.63    0.36      0      0      0       0      56 17.50
 2009 226    70    63   14.0      4   1.69   1128   1777      0    507   2905   3901      0    0.0  0.000    996      0  0.000  0.000  0.000  0.000  0.000  0.000  0.000   2.25   0.00   0.26      0    996    149.6   0.98   0.00   1.20    1.37    1.31    1.27    0.94    0.64    0.36      0      0      0       0      56 17.23
 2009 227    71    64   14.0      4   1.68   1103   1792      0    509   2895   3972      0    0.0  0.000   1077      0  0.000  0.000  0.000  0.000  0.000  0.000  0.000   2.26   0.00   0.27      0   1077    152.2   0.98   0.00   1.20    1.37    1.31    1.27    0.94    0.64    0.36      0      0      0       0      56 17.62
 2009 228    72    65   14.0      4   1.67   1077   1813      0    513   2889   4093      0    0.0  0.000   1204      0  0.000  0.000  0.000  0.000  0.000  0.000  0.000   2.26   0.00   0.29      0   1204    155.1   0.98   0.00   1.20    1.37    1.31    1.27    0.95    0.65    0.37      0      0      0       0      56 18.25
 2009 229    73    66   14.0      4   1.66   1049   1827      0    515   2877   4174      0    0.0  0.000   1298      0  0.000  0.000  0.000  0.000  0.000  0.000  0.000   2.27   0.00   0.31      0   1298    158.4   0.98   0.00   1.20    1.37    1.31    1.28    0.95    0.65    0.37      0      0      0       0      56 17.48
 2009 230    74    67   14.0      5   1.62   1049   1827     83    531   2877   4257   1040    8.0  0.020   1381      6  0.000  0.000  0.000  0.000  0.000  0.000  0.000   2.22   6.03   0.32      0   1381    154.7   0.98   0.00   1.20    1.39    1.34    1.31    0.98    0.68    0.39      0      0      0       0      56 17.50
 2009 231    75    68   14.0      5   1.62   1049   1827    166    556   2877   4341   1040   16.0  0.038   1464      6  0.000  0.000  0.000  0.000  0.000  0.000  0.000   2.17  11.37   0.34      0   1464    154.0   0.98   0.00   1.20    1.42    1.38    1.35    1.03    0.72    0.42      0      0      0       0      56 17.62
 2009 232    76    69   14.0      5   1.61   1049   1827    250    577   2877   4424   1040   24.0  0.056   1547      6  0.000  0.000  0.000  0.000  0.000  0.000  0.000   2.12  16.13   0.35      0   1547    153.2   0.98   0.00   1.20    1.44    1.41    1.39    1.07    0.75    0.45      0      0      0       0      56 18.17
 2009 233    77    70   14.0      5   1.60   1049   1827    333    578   2877   4507   1040   32.0  0.074   1630      6  0.000  0.000  0.000  0.000  0.000  0.000  0.000   2.07  20.42   0.36      0   1630    152.2   0.98   0.00   1.20    1.44    1.41    1.39    1.07    0.76    0.45      0      0      0       0      56 18.38
 2009 234    78    71   14.0      5   1.58   1049   1827    416    596   2877   4590   1040   40.0  0.091   1714      6  0.000  0.000  0.000  0.000  0.000  0.000  0.000   2.02  24.28   0.37      0   1714    151.0   0.98   0.00   1.20    1.46    1.43    1.42    1.11    0.79    0.47      0      0      0       0      56 18.12
 2009 235    79    72   14.0      5   1.57   1049   1827    499    620   2877   4673   1040   48.0  0.107   1797      6  0.000  0.000  0.000  0.000  0.000  0.000  0.000   1.97  27.79   0.38      0   1797    149.8   0.98   0.00   1.20    1.47    1.46    1.47    1.15    0.83    0.51      0      0      0       0      56 17.12
 2009 236    80    73   14.0      5   1.56   1049   1827    582    640   2877   4757   1040   56.0  0.122   1880      6  0.000  0.000  0.000  0.000  0.000  0.000  0.000   1.92  30.98   0.40      0   1880    148.4   0.98   0.00   1.20    1.49    1.49    1.50    1.19    0.87    0.54      0      0      0       0      56 16.98
 2009 237    81    74   14.0      5   1.54   1049   1827    666    663   2877   4840   1040   64.0  0.138   1963      6  0.000  0.000  0.000  0.000  0.000  0.000  0.000   1.87  33.91   0.41      0   1963    146.6   0.98   0.00   1.20    1.51    1.52    1.54    1.23    0.91    0.57      0      0      0       0      56 18.48
 2009 238    82    75   14.0      5   1.52   1049   1827    749    667   2877   4923   1040   72.0  0.152   2046      6  0.000  0.000  0.000  0.000  0.000  0.000  0.000   1.82  36.60   0.42      0   2046    144.7   0.98   0.00   1.20    1.51    1.52    1.55    1.24    0.92    0.57      0      0      0       0      56 18.00
 2009 239    83    76   14.0      5   1.50   1049   1827    832    687   2877   5006   1040   80.0  0.166   2130      6  0.000  0.000  0.000  0.000  0.000  0.000  0.000   1.77  39.07   0.43      0   2130    142.6   0.98   0.00   1.20    1.54    1.55    1.58    1.27    0.95    0.60      0      0      0       0      56 18.12
 2009 240    84    77   14.0      5   1.47   1049   1827    901    714   2877   5075   1040   86.6  0.178   2199      6  0.000  0.000  0.000  0.000  0.000  0.000  0.000   1.73  40.98   0.43      0   2199    139.9   0.98   0.00   1.20    1.56    1.58    1.63    1.32    1.00    0.64      0      0      0       0      56 20.36
 2009 241    85    78   14.0      5   1.44   1049   1827    984    711   2877   5158   1040   94.6  0.191   2282      6  0.000  0.000  0.000  0.000  0.000  0.000  0.000   1.68  43.13   0.44      0   2282    137.3   0.98   0.00   1.20    1.56    1.58    1.62    1.32    0.99    0.64      0      0      0       0      56 17.62
 2009 242    86    79   14.0      5   1.41   1049   1827   1067    734   2877   5242   1040  102.6  0.204   2365      6  0.000  0.000  0.000  0.000  0.000  0.000  0.000   1.63  45.14   0.45      0   2365    134.6   0.98   0.00   1.20    1.58    1.61    1.66    1.36    1.03    0.67      0      0      0       0      56 16.75
 2009 243    87    80   14.0      5   1.38   1049   1827   1151    753   2877   5325   1040  110.6  0.216   2448      6  0.000  0.000  0.000  0.000  0.000  0.000  0.000   1.58  47.00   0.46      0   2448    131.6   0.98   0.00   1.20    1.59    1.63    1.69    1.39    1.07    0.70      0      0      0       0      56 16.77
 2009 244    88    81   14.0      5   1.35   1049   1827   1234    753   2877   5408   1040  118.6  0.228   2531      6  0.000  0.000  0.000  0.000  0.000  0.000  0.000   1.53  48.74   0.47      0   2531    128.3   0.98   0.00   1.20    1.59    1.63    1.69    1.39    1.07    0.70      0      0      0       0      56 17.25
 2009 245    89    82   14.0      5   1.31   1049   1827   1317    754   2877   5491   1040  126.6  0.240   2615      6  0.000  0.000  0.000  0.000  0.000  0.000  0.000   1.48  50.37   0.48      0   2615    124.7   0.98   0.00   1.20    1.58    1.62    1.69    1.39    1.07    0.70      0      0      0       0      56 17.52
 2009 246    90    83   14.0      5   1.27   1049   1827   1400    770   2877   5574   1040  134.6  0.251   2698      6  0.000  0.000  0.000  0.000  0.000  0.000  0.000   1.43  51.90   0.48      0   2698    120.7   0.98   0.00   1.20    1.59    1.64    1.71    1.42    1.10    0.73      0      0      0       0      56 17.75
 2009 247    91    84   14.0      5   1.23   1049   1804   1483    766   2853   5634   1040  142.6  0.263   2781      6  0.000  0.000  0.000  0.000  0.000  0.000  0.000   1.39  53.34   0.49      0   2781    116.8   0.98   0.00   1.20    1.59    1.64    1.71    1.42    1.10    0.73      0      0      0       0      56 16.38
 2009 248    92    85   14.0      5   1.18   1049   1827   1567    777   2877   5741   1040  150.6  0.273   2864      6  0.000  0.000  0.000  0.000  0.000  0.000  0.000   1.33  54.70   0.50      0   2864    112.4   0.98   0.00   1.20    1.60    1.65    1.73    1.44    1.12    0.75      0      0      0       0      56 16.77
 2009 249    93    86   14.0      5   1.13   1049   1820   1650    773   2869   5816   1040  158.6  0.284   2947      6  0.000  0.000  0.000  0.000  0.000  0.000  0.000   1.29  55.98   0.51      0   2947    107.9   0.98   0.00   1.20    1.60    1.65    1.73    1.44    1.12    0.75      0      0      0       0      56 16.40
 2009 250    94    87   14.0      5   1.08   1049   1819   1733    769   2869   5899   1040  166.6  0.294   3031      6  0.000  0.000  0.000  0.000  0.000  0.000  0.000   1.24  57.19   0.51      0   3031    103.3   0.98   0.00   1.20    1.60    1.65    1.73    1.44    1.12    0.75      0      0      0       0      56 15.65
 2009 251    95    88   14.0      5   1.03   1049   1825   1816    768   2875   5988   1040  174.6  0.303   3114      6  0.000  0.000  0.000  0.000  0.000  0.000  0.000   1.11  58.33   0.52      0   3114     98.2   0.98   0.00   1.20    1.60    1.64    1.72    1.44    1.12    0.75      0      0      0       0      60 16.25
 2009 252    96    89   14.0      5   0.96   1049   1827   1900    780   2877   6074   1040  182.6  0.313   3197      6  0.000  0.000  0.000  0.000  0.000  0.000  0.000   1.09  59.42   0.53      0   3197     92.0   0.98   0.00   1.20    1.60    1.65    1.74    1.46    1.14    0.77      0      0      0       0      64 18.62
 2009 253    97    90   14.0      5   0.90   1049   1827   1983    785   2877   6157   1040  190.6  0.322   3280      6  0.000  0.000  0.000  0.000  0.000  0.000  0.000   1.06  60.44   0.53      0   3280     85.4   0.98   0.00   1.20    1.60    1.65    1.74    1.46    1.16    0.79      0      0      0       0      68 18.50
 2009 254    98    91   14.0      5   0.83   1049   1805   2066    781   2855   6218   1040  198.6  0.332   3363      6  0.000  0.000  0.000  0.000  0.000  0.000  0.000   1.03  61.42   0.54      0   3363     78.7   0.98   0.00   1.20    1.60    1.65    1.74    1.46    1.16    0.79      0      0      0       0      72 17.62
 2009 255    99    92   14.0      5   0.75   1049   1802   2149    778   2851   6298   1040  206.6  0.341   3447      6  0.000  0.000  0.000  0.000  0.000  0.000  0.000   1.01  62.35   0.55      0   3447     71.7   0.98   0.00   1.20    1.60    1.65    1.74    1.46    1.16    0.79      0      0      0       0      76 17.38
 2009 256   100    93   14.0      5   0.75   1049   1802   2149    778   2851   6298   1040  206.6  0.341   3447      6  0.000  0.000  0.000  0.000  0.000  0.000  0.000   1.01  62.35   0.55      0   3447     71.7   0.98   0.00   1.20    1.60    1.65    1.74    1.46    1.16    0.79      0      0      0       0      76 17.62
 2009 257   101    94   14.0      5   0.75   1049   1802   2149    778   2851   6298   1040  206.6  0.341   3447      6  0.000  0.000  0.000  0.000  0.000  0.000  0.000   1.01  62.35   0.55      0   3447     71.7   0.98   0.00   1.20    1.60    1.65    1.74    1.46    1.16    0.79      0      0      0       0      76 18.25
 2009 258   102    95   14.0      5   0.75   1049   1802   2149    778   2851   6298   1040  206.6  0.341   3447      6  0.000  0.000  0.000  0.000  0.000  0.000  0.000   1.01  62.35   0.55      0   3447     71.7   0.98   0.00   1.20    1.60    1.65    1.74    1.46    1.16    0.79      0      0      0       0      76  0.00
 2009 259   103    96   14.0      5   0.75   1049   1802   2149    778   2851   6298   1040  206.6  0.341   3447      6  0.000  0.000  0.000  0.000  0.000  0.000  0.000   1.01  62.35   0.55      0   3447     71.7   0.98   0.00   1.20    1.60    1.65    1.74    1.46    1.16    0.79      0      0      0       0      76 17.48
 2009 260   104    97   14.0      5   0.75   1049   1802   2149    778   2851   6298   1040  206.6  0.341   3447      6  0.000  0.000  0.000  0.000  0.000  0.000  0.000   1.01  62.35   0.55      0   3447     71.7   0.98   0.00   1.20    1.60    1.65    1.74    1.46    1.16    0.79      0      0      0       0      76 17.62
 2009 261   105    98   14.0      5   0.75   1049   1802   2149    778   2851   6298   1040  206.6  0.341   3447      6  0.000  0.000  0.000  0.000  0.000  0.000  0.000   1.01  62.35   0.55      0   3447     71.7   0.98   0.00   1.20    1.60    1.65    1.74    1.46    1.16    0.79      0      0      0       0      76 17.60
 2009 262   106    99   14.0      5   0.75   1049   1802   2149    778   2851   6298   1040  206.6  0.341   3447      6  0.000  0.000  0.000  0.000  0.000  0.000  0.000   1.01  62.35   0.55      0   3447     71.7   0.98   0.00   1.20    1.60    1.65    1.74    1.46    1.16    0.79      0      0      0       0      76 20.00
 2009 263   107   100   14.0      5   0.75   1049   1802   2149    778   2851   6298   1040  206.6  0.341   3447      6  0.000  0.000  0.000  0.000  0.000  0.000  0.000   1.01  62.35   0.55      0   3447     71.7   0.98   0.00   1.20    1.60    1.65    1.74    1.46    1.16    0.79      0      0      0       0      76 16.38
 2009 264   108   101   14.0      5   0.75   1049   1802   2149    778   2851   6298   1040  206.6  0.341   3447      6  0.000  0.000  0.000  0.000  0.000  0.000  0.000   1.01  62.35   0.55      0   3447     71.7   0.98   0.00   1.20    1.60    1.65    1.74    1.46    1.16    0.79      0      0      0       0      76 18.75
 2009 265   109   102   14.0      5   0.75   1049   1802   2149    778   2851   6298   1040  206.6  0.341   3447      6  0.000  0.000  0.000  0.000  0.000  0.000  0.000   1.01  62.35   0.55      0   3447     71.7   0.98   0.00   1.20    1.60    1.65    1.74    1.46    1.16    0.79      0      0      0       0      76 18.00
 2009 266   110   103   14.0      5   0.75   1049   1802   2149    778   2851   6298   1040  206.6  0.341   3447      6  0.000  0.000  0.000  0.000  0.000  0.000  0.000   1.01  62.35   0.55      0   3447     71.7   0.98   0.00   1.20    1.60    1.65    1.74    1.46    1.16    0.79      0      0      0       0      76 18.88
 2009 267   111   104   14.0      5   0.75   1049   1802   2149    778   2851   6298   1040  206.6  0.341   3447      6  0.000  0.000  0.000  0.000  0.000  0.000  0.000   1.01  62.35   0.55      0   3447     71.7   0.98   0.00   1.20    1.60    1.65    1.74    1.46    1.16    0.79      0      0      0       0      76 19.88
 2009 268   112   105   14.0      5   0.75   1049   1802   2149    778   2851   6298   1040  206.6  0.341   3447      6  0.000  0.000  0.000  0.000  0.000  0.000  0.000   1.01  62.35   0.55      0   3447     71.7   0.98   0.00   1.20    1.60    1.65    1.74    1.46    1.16    0.79      0      0      0       0      76 18.38
 2009 269   113   106   14.0      5   0.75   1049   1802   2149    778   2851   6298   1040  206.6  0.341   3447      6  0.000  0.000  0.000  0.000  0.000  0.000  0.000   1.01  62.35   0.55      0   3447     71.7   0.98   0.00   1.20    1.60    1.65    1.74    1.46    1.16    0.79      0      0      0       0      76 17.50
 2009 270   114   107   14.0      5   0.75   1049   1802   2149    778   2851   6298   1040  206.6  0.341   3447      6  0.000  0.000  0.000  0.000  0.000  0.000  0.000   1.01  62.35   0.55      0   3447     71.7   0.98   0.00   1.20    1.60    1.65    1.74    1.46    1.16    0.79      0      0      0       0      76 18.38
 2009 271   115   108   14.0      5   0.75   1049   1802   2149    778   2851   6298   1040  206.6  0.341   3447      6  0.000  0.000  0.000  0.000  0.000  0.000  0.000   1.01  62.35   0.55      0   3447     71.7   0.98   0.00   1.20    1.60    1.65    1.74    1.46    1.16    0.79      0      0      0       0      76 20.86
 2009 272   116   109   14.0      5   0.75   1049   1802   2149    778   2851   6298   1040  206.6  0.341   3447      6  0.000  0.000  0.000  0.000  0.000  0.000  0.000   1.01  62.35   0.55      0   3447     71.7   0.98   0.00   1.20    1.60    1.65    1.74    1.46    1.16    0.79      0      0      0       0      76 19.50
 2009 273   117   110   14.0      5   0.75   1049   1802   2149    778   2851   6298   1040  206.6  0.341   3447      6  0.000  0.000  0.000  0.000  0.000  0.000  0.000   1.01  62.35   0.55      0   3447     71.7   0.98   0.00   1.20    1.60    1.65    1.74    1.46    1.16    0.79      0      0      0       0      76 19.50
 2009 274   118   111   14.0      5   0.75   1049   1802   2149    778   2851   6298   1040  206.6  0.341   3447      6  0.000  0.000  0.000  0.000  0.000  0.000  0.000   1.01  62.35   0.55      0   3447     71.7   0.98   0.00   1.20    1.60    1.65    1.74    1.46    1.16    0.79      0      0      0       0      76 19.12
 2009 275   119   112   14.0      5   0.75   1049   1802   2149    778   2851   6298   1040  206.6  0.341   3447      6  0.000  0.000  0.000  0.000  0.000  0.000  0.000   1.01  62.35   0.55      0   3447     71.7   0.98   0.00   1.20    1.60    1.65    1.74    1.46    1.16    0.79      0      0      0       0      76 20.12
 2009 276   120   113   14.0      5   0.75   1049   1802   2149    778   2851   6298   1040  206.6  0.341   3447      6  0.000  0.000  0.000  0.000  0.000  0.000  0.000   1.01  62.35   0.55      0   3447     71.7   0.98   0.00   1.20    1.60    1.65    1.74    1.46    1.16    0.79      0      0      0       0      76 19.00
 2009 277   121   114   14.0      5   0.75   1049   1802   2149    778   2851   6298   1040  206.6  0.341   3447      6  0.000  0.000  0.000  0.000  0.000  0.000  0.000   1.01  62.35   0.55      0   3447     71.7   0.98   0.00   1.20    1.60    1.65    1.74    1.46    1.16    0.79      0      0      0       0      76 19.36
 2009 278   122   115   14.0      5   0.75   1049   1802   2149    778   2851   6298   1040  206.6  0.341   3447      6  0.000  0.000  0.000  0.000  0.000  0.000  0.000   1.01  62.35   0.55      0   3447     71.7   0.98   0.00   1.20    1.60    1.65    1.74    1.46    1.16    0.79      0      0      0       0      76 19.64
 2009 279   123   116   14.0      5   0.75   1049   1802   2149    778   2851   6298   1040  206.6  0.341   3447      6  0.000  0.000  0.000  0.000  0.000  0.000  0.000   1.01  62.35   0.55      0   3447     71.7   0.98   0.00   1.20    1.60    1.65    1.74    1.46    1.16    0.79      0      0      0       0      76 19.71
 2009 280   124   117   14.0      5   0.75   1049   1802   2149    778   2851   6298   1040  206.6  0.341   3447      6  0.000  0.000  0.000  0.000  0.000  0.000  0.000   1.01  62.35   0.55      0   3447     71.7   0.98   0.00   1.20    1.60    1.65    1.74    1.46    1.16    0.79      0      0      0       0      76 18.00
 2009 281   125   118   14.0      5   0.75   1049   1802   2149    778   2851   6298   1040  206.6  0.341   3447      6  0.000  0.000  0.000  0.000  0.000  0.000  0.000   1.01  62.35   0.55      0   3447     71.7   0.98   0.00   1.20    1.60    1.65    1.74    1.46    1.16    0.79      0      0      0       0      76 19.50
 2009 282   126   119   14.0      5   0.75   1049   1802   2149    778   2851   6298   1040  206.6  0.341   3447      6  0.000  0.000  0.000  0.000  0.000  0.000  0.000   1.01  62.35   0.55      0   3447     71.7   0.98   0.00   1.20    1.60    1.65    1.74    1.46    1.16    0.79      0      0      0       0      76 18.75
 2009 283   127   120   14.0      5   0.75   1049   1802   2149    778   2851   6298   1040  206.6  0.341   3447      6  0.000  0.000  0.000  0.000  0.000  0.000  0.000   1.01  62.35   0.55      0   3447     71.7   0.98   0.00   1.20    1.60    1.65    1.74    1.46    1.16    0.79      0      0      0       0      76 18.75
 2009 284   128   121   14.0      5   0.75   1049   1802   2149    778   2851   6298   1040  206.6  0.341   3447      6  0.000  0.000  0.000  0.000  0.000  0.000  0.000   1.01  62.35   0.55      0   3447     71.7   0.98   0.00   1.20    1.60    1.65    1.74    1.46    1.16    0.79      0      0      0       0      76 18.75
 2009 285   129   122   14.0      5   0.75   1049   1802   2149    778   2851   6298   1040  206.6  0.341   3447      6  0.000  0.000  0.000  0.000  0.000  0.000  0.000   1.01  62.35   0.55      0   3447     71.7   0.98   0.00   1.20    1.60    1.65    1.74    1.46    1.16    0.79      0      0      0       0      76 19.52
 2009 286   130   123   14.0      5   0.75   1049   1802   2149    778   2851   6298   1040  206.6  0.341   3447      6  0.000  0.000  0.000  0.000  0.000  0.000  0.000   1.01  62.35   0.55      0   3447     71.7   0.98   0.00   1.20    1.60    1.65    1.74    1.46    1.16    0.79      0      0      0       0      76 19.96
 2009 287   131   124   14.0      5   0.75   1049   1802   2149    778   2851   6298   1040  206.6  0.341   3447      6  0.000  0.000  0.000  0.000  0.000  0.000  0.000   1.01  62.35   0.55      0   3447     71.7   0.98   0.00   1.20    1.60    1.65    1.74    1.46    1.16    0.79      0      0      0       0      76 19.46
 2009 288   132   125   14.0      5   0.75   1049   1802   2149    778   2851   6298   1040  206.6  0.341   3447      6  0.000  0.000  0.000  0.000  0.000  0.000  0.000   1.01  62.35   0.55      0   3447     71.7   0.98   0.00   1.20    1.60    1.65    1.74    1.46    1.16    0.79      0      0      0       0      76 19.75
 2009 289   133   126   14.0      5   0.75   1049   1802   2149    778   2851   6298   1040  206.6  0.341   3447      6  0.000  0.000  0.000  0.000  0.000  0.000  0.000   1.01  62.35   0.55      0   3447     71.7   0.98   0.00   1.20    1.60    1.65    1.74    1.46    1.16    0.79      0      0      0       0      76 19.75
 2009 290   134   127   14.0      5   0.75   1049   1802   2149    778   2851   6298   1040  206.6  0.341   3447      6  0.000  0.000  0.000  0.000  0.000  0.000  0.000   1.01  62.35   0.55      0   3447     71.7   0.98   0.00   1.20    1.60    1.65    1.74    1.46    1.16    0.79      0      0      0       0      76 19.71
 2009 291   135   128   14.0      5   0.75   1049   1802   2149    778   2851   6298   1040  206.6  0.341   3447      6  0.000  0.000  0.000  0.000  0.000  0.000  0.000   1.01  62.35   0.55      0   3447     71.7   0.98   0.00   1.20    1.60    1.65    1.74    1.46    1.16    0.79      0      0      0       0      76 19.30
 2009 292   136   129   14.0      5   0.75   1049   1802   2149    778   2851   6298   1040  206.6  0.341   3447      6  0.000  0.000  0.000  0.000  0.000  0.000  0.000   1.01  62.35   0.55      0   3447     71.7   0.98   0.00   1.20    1.60    1.65    1.74    1.46    1.16    0.79      0      0      0       0      76 19.36
 2009 293   137   130   14.0      5   0.75   1049   1802   2149    778   2851   6298   1040  206.6  0.341   3447      6  0.000  0.000  0.000  0.000  0.000  0.000  0.000   1.01  62.35   0.55      0   3447     71.7   0.98   0.00   1.20    1.60    1.65    1.74    1.46    1.16    0.79      0      0      0       0      76 19.42
 2009 294   138   131   14.0      5   0.75   1049   1802   2149    778   2851   6298   1040  206.6  0.341   3447      6  0.000  0.000  0.000  0.000  0.000  0.000  0.000   1.01  62.35   0.55      0   3447     71.7   0.98   0.00   1.20    1.60    1.65    1.74    1.46    1.16    0.79      0      0      0       0      76 20.14
 2009 295   139   132   14.0      5   0.75   1049   1802   2149    778   2851   6298   1040  206.6  0.341   3447      6  0.000  0.000  0.000  0.000  0.000  0.000  0.000   1.01  62.35   0.55      0   3447     71.7   0.98   0.00   1.20    1.60    1.65    1.74    1.46    1.16    0.79      0      0      0       0      76 17.00
 2009 296   140   133   14.0      5   0.75   1049   1802   2149    778   2851   6298   1040  206.6  0.341   3447      6  0.000  0.000  0.000  0.000  0.000  0.000  0.000   1.01  62.35   0.55      0   3447     71.7   0.98   0.00   1.20    1.60    1.65    1.74    1.46    1.16    0.79      0      0      0       0      76 19.25
 2009 297   141   134   14.0      5   0.75   1049   1802   2149    778   2851   6298   1040  206.6  0.341   3447      6  0.000  0.000  0.000  0.000  0.000  0.000  0.000   1.01  62.35   0.55      0   3447     71.7   0.98   0.00   1.20    1.60    1.65    1.74    1.46    1.16    0.79      0      0      0       0      76 18.25
 2009 298   142   135   14.0      5   0.75   1049   1802   2149    778   2851   6298   1040  206.6  0.341   3447      6  0.000  0.000  0.000  0.000  0.000  0.000  0.000   1.01  62.35   0.55      0   3447     71.7   0.98   0.00   1.20    1.60    1.65    1.74    1.46    1.16    0.79      0      0      0       0      76 18.00
 2009 299   143   136   14.0      5   0.75   1049   1802   2149    778   2851   6298   1040  206.6  0.341   3447      6  0.000  0.000  0.000  0.000  0.000  0.000  0.000   1.01  62.35   0.55      0   3447     71.7   0.98   0.00   1.20    1.60    1.65    1.74    1.46    1.16    0.79      0      0      0       0      76 19.00
 2009 300   144   137   14.0      5   0.75   1049   1802   2149    778   2851   6298   1040  206.6  0.341   3447      6  0.000  0.000  0.000  0.000  0.000  0.000  0.000   1.01  62.35   0.55      0   3447     71.7   0.98   0.00   1.20    1.60    1.65    1.74    1.46    1.16    0.79      0      0      0       0      76 18.75
 2009 301   145   138   14.0      5   0.75   1049   1802   2149    778   2851   6298   1040  206.6  0.341   3447      6  0.000  0.000  0.000  0.000  0.000  0.000  0.000   1.01  62.35   0.55      0   3447     71.7   0.98   0.00   1.20    1.60    1.65    1.74    1.46    1.16    0.79      0      0      0       0      76 17.50
 2009 302   146   139   14.0      5   0.75   1049   1802   2149    778   2851   6298   1040  206.6  0.341   3447      6  0.000  0.000  0.000  0.000  0.000  0.000  0.000   1.01  62.35   0.55      0   3447     71.7   0.98   0.00   1.20    1.60    1.65    1.74    1.46    1.16    0.79      0      0      0       0      76 17.25
 2009 303   147   140   14.0      5   0.75   1049   1802   2149    778   2851   6298   1040  206.6  0.341   3447      6  0.000  0.000  0.000  0.000  0.000  0.000  0.000   1.01  62.35   0.55      0   3447     71.7   0.98   0.00   1.20    1.60    1.65    1.74    1.46    1.16    0.79      0      0      0       0      76 16.77
 2009 304   148   141   14.0      5   0.75   1049   1802   2149    778   2851   6298   1040  206.6  0.341   3447      6  0.000  0.000  0.000  0.000  0.000  0.000  0.000   1.01  62.35   0.55      0   3447     71.7   0.98   0.00   1.20    1.60    1.65    1.74    1.46    1.16    0.79      0      0      0       0      76 17.62
 2009 305   149   142   14.0      5   0.75   1049   1802   2149    778   2851   6298   1040  206.6  0.341   3447      6  0.000  0.000  0.000  0.000  0.000  0.000  0.000   1.01  62.35   0.55      0   3447     71.7   0.98   0.00   1.20    1.60    1.65    1.74    1.46    1.16    0.79      0      0      0       0      76 16.50
 2009 306   150   143   14.0      5   0.75   1049   1802   2149    778   2851   6298   1040  206.6  0.341   3447      6  0.000  0.000  0.000  0.000  0.000  0.000  0.000   1.01  62.35   0.55      0   3447     71.7   0.98   0.00   1.20    1.60    1.65    1.74    1.46    1.16    0.79      0      0      0       0      76 12.75
 2009 307   151   144   14.0      5   0.75   1049   1802   2149    778   2851   6298   1040  206.6  0.341   3447      6  0.000  0.000  0.000  0.000  0.000  0.000  0.000   1.01  62.35   0.55      0   3447     71.7   0.98   0.00   1.20    1.60    1.65    1.74    1.46    1.16    0.79      0      0      0       0      76 15.25
 2009 308   152   145   14.0      5   0.75   1049   1802   2149    778   2851   6298   1040  206.6  0.341   3447      6  0.000  0.000  0.000  0.000  0.000  0.000  0.000   1.01  62.35   0.55      0   3447     71.7   0.98   0.00   1.20    1.60    1.65    1.74    1.46    1.16    0.79      0      0      0       0      76 15.00
