*SOIL INORGANIC N BALANCE

*DSSAT Cropping System Model Ver. 4.7.2.000 -release      OCT 15, 2021; 17:59:33
                                                                                
*RUN   1        :             CSM335_date_1 MZCER047 ITSA1301    1              
 MODEL          : MZCER047 - Maize                                              
 EXPERIMENT     : ITSA1301 SG CALIBRATION SETUP OF SORGHUM SOWING DATES         
 DATA PATH      :                                                               
 TREATMENT  1   :             CSM335_date_1 MZCER047                            
  


!SOIL INORGANIC N BALANCE                         Initial               Final
!                                                Year/Doy            Year/Doy
!                                                2009/157            2009/308
!                                               (kg[N]/ha)          (kg[N]/ha)
! Soil N state variables:
!   Soil NO3                                        33.27              243.65
!   Soil NH4                                        11.95                7.12
!   Soil Urea                                        0.00                0.00
!   Soil N gases                                     0.00                0.16

! N additions:
!   Fertilizer N                                    85.00
!   Mineralized N                                  406.53

! N subtractions:
!   N immobilized                                                       92.77
!   N leached                                                          118.64
!   N loss to tile drainage                                              0.00
!   N Uptake From Soil                                                  73.33
!   NH3 loss                                                             0.00
!   N2O loss                                                             0.46
!   N2 loss                                                              0.41
!   NO loss                                                              0.23

!   Total N balance                                536.75              536.75
!   Balance                                                            -0.000
