
*SOIL N BALANCE - CENTURY ROUTINES

*DSSAT Cropping System Model Ver. 4.7.2.000 -release      OCT 15, 2021; 17:59:33

!                     |------------------- N State Variables -------------------| |------------ N Additions ------------| |--------------- N Subtractions ----------------| |-Mineralization--|
!                                                                                   Harvest   Applied                                   Tile-     N gas     Flood    Miner-    Immob-  Seasonal
!                       Surface      SOM1      SOM2      SOM3    Litter     Inorg   Residue   Residue  Fertiliz   Senesed   Leached   drained    Uptake    Losses    Losses    alized    ilized   Balance
@Run FILEX         TN      SN0D     S1NTD     S2NTD     S3NTD      LNTD      NIAD      HRNH     RESNC      NICM     SNNTC      NLCM      TDFC      NUCM     NGasC      RNRO      NMNC      NIMC   SEASBAL
   1 ITSA1301.SGX INIT     0.00    202.79   2266.48  11230.36      4.50      0.00
   1 ITSA1301.SGX   1      0.00     64.66   2115.64  11210.63      0.25    250.92      0.00      0.00     85.00      0.82    118.64      0.00     73.33      1.10      0.00    406.53     92.77      0.00
