*SOM N DAILY OUTPUT FILE

*DSSAT Cropping System Model Ver. 4.7.2.000 -release      OCT 15, 2021; 17:59:33
                                                                                
*RUN   1        :             CSM335_date_1 MZCER047 ITSA1301    1              
 MODEL          : MZCER047 - Maize                                              
 EXPERIMENT     : ITSA1301 SG CALIBRATION SETUP OF SORGHUM SOWING DATES         
 DATA PATH      :                                                               
 TREATMENT  1   :             CSM335_date_1 MZCER047                            
  
!                                                                                                                                                                                                                                                                                                                                                                                                                                                Cumul.
!               <---- SOM N in top layers ----> <---------------- Total Soil Organic Nitrogen ----------------> <-------- Active Soil Organic Nitrogen (SOM1) --------> <---- Intermediate Soil Organic N (SOM2) -----> <------- Passive Soil Organic N (SOM3) -------> <----------------- Litter Nitrogen -------------------> <------------- Metabolic Litter Nitrogen -------------> <------------ Structural Litter Nitrogen ------------->  Res. N
!               20cm-kg  20cm-% 40cm-kg  40cm-%   Total Surface    Soil     0-5    5-15   15-30   30-60  60-120 Surface    Soil     0-5    5-15   15-30   30-60  60-120    Soil     0-5    5-15   15-30   30-60  60-120    Soil     0-5    5-15   15-30   30-60  60-120 Surface    Soil     0-5    5-15   15-30   30-60  60-120 Surface    Soil     0-5    5-15   15-30   30-60  60-120 Surface    Soil     0-5    5-15   15-30   30-60  60-120 (kg/ha)
@YEAR DOY   DAS  SNS20D  SN%20D  SNS40D  SN%40D    SOND    SN0D    SNTD    SN1D    SN2D    SN3D    SN4D   SN5+D   S1N0D   S1NTD   S1N1D   S1N2D   S1N3D   S1N4D  S1N5+D   S2NTD   S2N1D   S2N2D   S2N3D   S2N4D  S2N5+D   S3NTD   S3N1D   S3N2D   S3N3D   S3N4D  S3N5+D    LN0D    LNTD    LN1D    LN2D    LN3D    LN4D   LN5+D   MEN0D   MENTD   MEN1D   MEN2D   MEN3D   MEN4D  MEN5+D   STN0D   STNTD   STN1D   STN2D   STN3D   STN4D  STN5+D   RESNC
 2009 156     0    3529   0.106    2698   0.081   13704       0   13704     882    1765    2649    2800    5608       0     203      33      66      98       2       4    2266     366     733    1100      22      44   11230     483     966    1449    2775    5559    0.00    4.50    0.56    0.93    1.02    1.17    0.81    0.00    4.11    0.51    0.85    0.94    1.07    0.74    0.00    0.39    0.05    0.08    0.09    0.10    0.07       0
 2009 157     1    3527   0.106    2697   0.081   13701       0   13701     882    1764    2647    2800    5608       0     200      32      65      97       2       4    2266     366     733    1100      22      44   11230     483     966    1449    2775    5559    0.00    4.30    0.53    0.89    0.98    1.12    0.78    0.00    3.91    0.48    0.81    0.89    1.02    0.71    0.00    0.39    0.05    0.08    0.09    0.10    0.07       0
 2009 158     2    3524   0.106    2696   0.081   13697       0   13697     881    1763    2646    2800    5608       0     198      32      64      96       2       4    2265     366     733    1100      22      44   11230     483     966    1449    2775    5558    0.00    4.09    0.50    0.84    0.94    1.07    0.75    0.00    3.70    0.45    0.76    0.85    0.97    0.68    0.00    0.39    0.05    0.08    0.09    0.10    0.07       0
 2009 159     3    3522   0.106    2695   0.081   13694       0   13694     880    1761    2645    2800    5608       0     195      31      63      95       2       4    2264     366     732    1100      22      44   11230     483     966    1449    2774    5558    0.00    3.89    0.46    0.78    0.90    1.03    0.72    0.00    3.50    0.41    0.70    0.81    0.93    0.65    0.00    0.39    0.05    0.08    0.09    0.10    0.07       0
 2009 160     4    3519   0.106    2695   0.081   13690       0   13690     879    1760    2643    2800    5607       0     193      31      62      94       2       4    2264     366     732    1099      22      44   11230     483     966    1449    2774    5558    0.00    3.72    0.43    0.74    0.87    0.99    0.69    0.00    3.33    0.38    0.66    0.78    0.89    0.62    0.00    0.39    0.05    0.08    0.09    0.10    0.07       0
 2009 161     5    3517   0.106    2694   0.081   13687       0   13687     879    1759    2642    2800    5607       0     190      30      61      93       2       4    2263     366     732    1099      22      44   11230     483     966    1449    2774    5558    0.00    3.56    0.41    0.70    0.83    0.95    0.67    0.00    3.17    0.36    0.62    0.75    0.85    0.60    0.00    0.39    0.05    0.08    0.09    0.10    0.07       0
 2009 162     6    3515   0.106    2693   0.081   13684       0   13684     879    1758    2641    2800    5607       0     188      30      60      92       2       4    2263     366     732    1099      22      44   11230     483     966    1449    2774    5558    0.00    3.41    0.39    0.66    0.80    0.92    0.64    0.00    3.03    0.34    0.58    0.71    0.82    0.57    0.00    0.39    0.05    0.08    0.09    0.10    0.07       0
 2009 163     7    3513   0.106    2692   0.081   13680       0   13680     878    1757    2639    2800    5607       0     185      29      59      91       2       4    2262     366     732    1099      22      44   11230     483     966    1449    2774    5558    0.00    3.23    0.37    0.62    0.75    0.88    0.62    0.00    2.85    0.32    0.54    0.66    0.78    0.55    0.00    0.38    0.05    0.08    0.09    0.10    0.07       0
 2009 164     8    3511   0.106    2691   0.081   13677       0   13677     877    1756    2637    2800    5607       0     182      29      58      89       2       4    2261     365     731    1098      22      44   11230     483     966    1449    2774    5558    0.00    3.07    0.35    0.58    0.70    0.84    0.60    0.00    2.68    0.30    0.50    0.61    0.74    0.53    0.00    0.38    0.05    0.08    0.09    0.10    0.07       0
 2009 165     9    3508   0.106    2689   0.081   13673       0   13673     877    1754    2635    2800    5607       0     179      29      57      88       2       4    2261     365     731    1098      22      44   11230     483     966    1449    2774    5558    0.00    2.89    0.33    0.54    0.65    0.80    0.58    0.00    2.51    0.28    0.46    0.56    0.70    0.51    0.00    0.38    0.05    0.08    0.09    0.10    0.07       0
 2009 166    10    3506   0.106    2688   0.081   13669       0   13669     876    1753    2633    2799    5607       0     177      28      56      86       2       4    2260     365     731    1097      22      44   11230     483     966    1449    2774    5558    0.00    2.74    0.31    0.51    0.61    0.75    0.56    0.00    2.36    0.26    0.43    0.52    0.66    0.49    0.00    0.38    0.05    0.08    0.09    0.10    0.07       0
 2009 167    11    3504   0.106    2687   0.081   13666       0   13666     876    1752    2632    2799    5607       0     174      28      55      85       2       4    2259     365     731    1097      22      44   11229     483     966    1449    2774    5558    0.00    2.60    0.29    0.48    0.57    0.71    0.54    0.00    2.22    0.24    0.40    0.49    0.61    0.47    0.00    0.38    0.05    0.08    0.09    0.10    0.07       0
 2009 168    12    3502   0.105    2686   0.081   13663       0   13663     876    1751    2630    2799    5607       0     172      28      54      84       2       4    2259     365     730    1097      22      44   11229     483     966    1449    2774    5558    0.00    2.47    0.27    0.45    0.54    0.67    0.53    0.00    2.09    0.23    0.37    0.45    0.58    0.46    0.00    0.38    0.05    0.08    0.09    0.10    0.07       0
 2009 169    13    3500   0.105    2685   0.081   13659       0   13659     875    1750    2628    2799    5607       0     170      27      54      82       2       4    2258     365     730    1096      22      44   11229     483     966    1449    2774    5558    0.00    2.34    0.26    0.43    0.51    0.64    0.51    0.00    1.97    0.21    0.35    0.42    0.54    0.44    0.00    0.37    0.05    0.08    0.09    0.10    0.07       0
 2009 170    14    3498   0.105    2684   0.081   13656       0   13656     875    1749    2627    2799    5607       0     168      27      53      81       2       4    2257     365     730    1096      22      44   11229     483     966    1449    2774    5558    0.00    2.22    0.25    0.40    0.48    0.60    0.50    0.00    1.85    0.20    0.32    0.39    0.50    0.43    0.00    0.37    0.05    0.08    0.08    0.10    0.07       0
 2009 171    15    3496   0.105    2683   0.081   13653       0   13653     875    1747    2625    2799    5607       0     165      27      52      80       2       4    2257     365     730    1096      22      44   11229     483     966    1449    2774    5558    0.00    2.11    0.24    0.38    0.45    0.57    0.48    0.00    1.73    0.19    0.30    0.36    0.47    0.41    0.00    0.37    0.05    0.08    0.08    0.10    0.07       0
 2009 172    16    3494   0.105    2682   0.081   13650       0   13650     874    1746    2624    2799    5607       0     163      27      51      79       2       4    2256     365     729    1095      22      44   11229     483     966    1449    2774    5558    0.00    2.00    0.23    0.35    0.42    0.53    0.47    0.00    1.63    0.18    0.28    0.34    0.44    0.40    0.00    0.37    0.05    0.08    0.08    0.10    0.07       0
 2009 173    17    3493   0.105    2681   0.081   13647       0   13647     874    1745    2622    2799    5606       0     161      26      50      78       2       4    2255     365     729    1095      22      44   11229     483     966    1449    2774    5558    0.00    1.89    0.22    0.33    0.39    0.50    0.45    0.00    1.52    0.17    0.26    0.31    0.40    0.38    0.00    0.37    0.05    0.08    0.08    0.10    0.07       0
 2009 174    18    3491   0.105    2680   0.081   13643       0   13643     873    1744    2621    2799    5606       0     159      26      50      77       3       4    2254     364     729    1094      22      44   11229     483     966    1449    2774    5558    0.00    1.78    0.20    0.31    0.37    0.47    0.43    0.00    1.41    0.16    0.24    0.29    0.37    0.36    0.00    0.37    0.05    0.08    0.08    0.10    0.07       0
 2009 175    19    3489   0.105    2679   0.081   13640       0   13640     873    1743    2619    2799    5606       0     157      26      49      76       3       4    2253     364     729    1094      22      44   11229     483     966    1449    2774    5558    0.00    1.68    0.19    0.30    0.35    0.44    0.41    0.00    1.32    0.15    0.22    0.27    0.34    0.34    0.00    0.37    0.05    0.07    0.08    0.10    0.07       0
 2009 176    20    3487   0.105    2678   0.081   13637       0   13637     872    1742    2618    2799    5606       0     155      25      48      75       3       4    2252     364     728    1094      22      44   11229     483     966    1449    2774    5558    0.00    1.60    0.18    0.28    0.33    0.41    0.39    0.00    1.23    0.14    0.20    0.25    0.32    0.33    0.00    0.36    0.05    0.07    0.08    0.09    0.07       0
 2009 177    21    3485   0.105    2677   0.081   13634       0   13634     872    1741    2616    2799    5606       0     153      25      48      74       3       4    2252     364     728    1093      22      44   11229     483     966    1449    2774    5558    0.00    1.51    0.18    0.26    0.31    0.39    0.38    0.00    1.15    0.13    0.19    0.23    0.29    0.31    0.00    0.36    0.05    0.07    0.08    0.09    0.07       0
 2009 178    22    3483   0.105    2676   0.081   13632       0   13632     872    1741    2615    2799    5606       0     151      25      47      73       3       4    2251     364     728    1093      22      44   11228     483     966    1449    2774    5557    0.00    1.44    0.17    0.25    0.29    0.37    0.36    0.00    1.08    0.13    0.18    0.21    0.27    0.29    0.00    0.36    0.05    0.07    0.08    0.09    0.07       0
 2009 179    23    3482   0.105    2675   0.081   13629       0   13629     871    1740    2613    2799    5606       0     149      25      46      72       3       4    2250     364     727    1092      22      44   11228     483     966    1449    2774    5557    0.00    1.37    0.17    0.24    0.27    0.34    0.35    0.00    1.01    0.12    0.16    0.19    0.25    0.28    0.00    0.36    0.04    0.07    0.08    0.09    0.07       0
 2009 180    24    3480   0.105    2674   0.081   13626       0   13626     871    1739    2612    2799    5606       0     148      25      46      71       3       4    2249     364     727    1092      22      44   11228     483     966    1449    2774    5557    0.00    1.31    0.16    0.23    0.26    0.33    0.33    0.00    0.95    0.12    0.15    0.18    0.23    0.26    0.00    0.36    0.04    0.07    0.08    0.09    0.07       0
 2009 181    25    3479   0.105    2673   0.081   13624       0   13624     871    1738    2611    2798    5606       0     146      24      45      70       3       4    2248     364     727    1091      22      44   11228     483     966    1449    2774    5557    0.00    1.24    0.16    0.21    0.25    0.31    0.32    0.00    0.88    0.11    0.14    0.17    0.22    0.25    0.00    0.36    0.04    0.07    0.08    0.09    0.07       0
 2009 182    26    3477   0.105    2672   0.080   13621       0   13621     870    1737    2610    2798    5606       0     145      24      45      70       3       4    2247     364     727    1091      22      44   11228     483     966    1449    2774    5557    0.00    1.18    0.15    0.20    0.23    0.29    0.30    0.00    0.83    0.10    0.13    0.15    0.20    0.24    0.00    0.36    0.04    0.07    0.08    0.09    0.07       0
 2009 183    27    3475   0.105    2672   0.080   13618       0   13618     870    1736    2609    2798    5605       0     143      24      44      69       3       4    2246     363     726    1090      22      44   11228     483     966    1449    2773    5557    0.00    1.13    0.14    0.20    0.22    0.28    0.29    0.00    0.77    0.10    0.12    0.14    0.19    0.23    0.00    0.35    0.04    0.07    0.08    0.09    0.07       0
 2009 184    28    3474   0.105    2671   0.080   13616       0   13616     869    1736    2608    2798    5605       0     142      23      44      68       3       4    2245     363     726    1090      22      44   11228     483     966    1449    2773    5557    0.00    1.08    0.13    0.19    0.21    0.26    0.28    0.00    0.73    0.09    0.12    0.13    0.17    0.22    0.00    0.35    0.04    0.07    0.08    0.09    0.07       0
 2009 185    29    3472   0.105    2670   0.080   13614       0   13614     869    1735    2607    2798    5605       0     141      23      43      68       3       4    2245     363     726    1090      22      44   11228     483     966    1449    2773    5557    0.00    1.04    0.13    0.18    0.20    0.25    0.27    0.00    0.69    0.09    0.11    0.13    0.16    0.21    0.00    0.35    0.04    0.07    0.08    0.09    0.07       0
 2009 186    30    3471   0.105    2670   0.080   13612       0   13612     869    1734    2606    2798    5605       0     139      23      43      67       3       4    2244     363     725    1089      22      44   11228     483     966    1449    2773    5557    0.00    1.00    0.13    0.17    0.20    0.24    0.26    0.00    0.65    0.08    0.10    0.12    0.15    0.20    0.00    0.35    0.04    0.07    0.08    0.09    0.07       0
 2009 187    31    3470   0.105    2669   0.080   13610       0   13610     868    1733    2605    2798    5605       0     138      23      43      67       3       4    2243     363     725    1089      22      44   11227     483     966    1449    2773    5557    0.00    0.97    0.12    0.17    0.19    0.23    0.25    0.00    0.62    0.08    0.10    0.11    0.14    0.19    0.00    0.35    0.04    0.07    0.08    0.09    0.07       0
 2009 188    32    3468   0.104    2668   0.080   13607       0   13607     868    1733    2604    2798    5605       0     137      23      42      66       3       4    2242     363     725    1088      22      44   11227     483     966    1449    2773    5557    0.00    0.93    0.12    0.16    0.18    0.22    0.24    0.00    0.59    0.08    0.09    0.10    0.13    0.18    0.00    0.35    0.04    0.07    0.08    0.09    0.06       0
 2009 189    33    3467   0.104    2667   0.080   13605       0   13605     868    1732    2603    2798    5605       0     136      22      42      66       2       4    2241     363     724    1088      22      44   11227     483     966    1449    2773    5557    0.00    0.90    0.12    0.16    0.18    0.21    0.23    0.00    0.55    0.07    0.09    0.10    0.12    0.17    0.00    0.35    0.04    0.07    0.08    0.09    0.06       0
 2009 190    34    3465   0.104    2667   0.080   13603       0   13603     867    1731    2602    2798    5605       0     135      22      42      65       2       4    2240     363     724    1087      22      44   11227     483     966    1449    2773    5557    0.00    0.87    0.11    0.15    0.17    0.21    0.23    0.00    0.52    0.07    0.08    0.09    0.12    0.16    0.00    0.35    0.04    0.07    0.08    0.09    0.06       0
 2009 191    35    3464   0.104    2666   0.080   13601       0   13601     867    1731    2601    2798    5605       0     134      22      41      65       2       4    2239     362     724    1087      22      44   11227     483     966    1449    2773    5557    0.00    0.84    0.11    0.15    0.17    0.20    0.22    0.00    0.49    0.06    0.08    0.09    0.11    0.15    0.00    0.34    0.04    0.07    0.08    0.09    0.06       0
 2009 192    36    3463   0.104    2666   0.080   13598       0   13598     866    1730    2600    2798    5605       0     133      21      41      64       2       4    2238     362     724    1086      22      44   11227     483     966    1449    2773    5557    0.00    0.82    0.10    0.14    0.16    0.19    0.21    0.00    0.47    0.06    0.07    0.08    0.10    0.15    0.00    0.34    0.04    0.07    0.08    0.09    0.06       0
 2009 193    37    3461   0.104    2665   0.080   13597       0   13597     866    1729    2599    2798    5605       0     132      21      40      64       2       4    2237     362     723    1086      22      44   11227     483     966    1449    2773    5557    0.00    0.80    0.10    0.14    0.16    0.19    0.21    0.00    0.45    0.06    0.07    0.08    0.10    0.14    0.00    0.34    0.04    0.07    0.08    0.09    0.06       0
 2009 194    38    3460   0.104    2665   0.080   13594       0   13594     865    1729    2598    2798    5604       0     130      21      40      63       2       4    2237     362     723    1085      22      44   11227     483     966    1449    2773    5556    0.00    0.78    0.10    0.14    0.16    0.18    0.20    0.00    0.44    0.06    0.07    0.08    0.10    0.13    0.00    0.34    0.04    0.07    0.08    0.09    0.06       0
 2009 195    39    3458   0.104    2664   0.080   13592       0   13592     865    1728    2597    2798    5604       0     129      21      40      63       2       4    2236     362     723    1085      22      44   11226     483     966    1449    2773    5556    0.00    0.76    0.10    0.14    0.15    0.18    0.19    0.00    0.42    0.05    0.07    0.08    0.09    0.13    0.00    0.34    0.04    0.07    0.08    0.09    0.06       0
 2009 196    40    3457   0.104    2663   0.080   13590       0   13590     865    1727    2596    2798    5604       0     128      20      39      63       2       4    2235     362     722    1085      22      44   11226     483     966    1449    2773    5556    0.00    0.75    0.10    0.14    0.15    0.18    0.18    0.00    0.41    0.05    0.07    0.08    0.09    0.12    0.00    0.34    0.04    0.07    0.08    0.09    0.06       0
 2009 197    41    3456   0.104    2663   0.080   13588       0   13588     864    1727    2595    2798    5604       0     127      20      39      62       3       4    2234     362     722    1084      22      44   11226     483     966    1449    2773    5556    0.00    0.73    0.09    0.13    0.15    0.18    0.18    0.00    0.39    0.05    0.06    0.07    0.09    0.11    0.00    0.34    0.04    0.07    0.08    0.09    0.06       0
 2009 198    42    3454   0.104    2662   0.080   13586       0   13586     864    1726    2594    2797    5604       0     126      20      38      61       3       4    2233     362     722    1084      22      44   11226     483     966    1449    2773    5556    0.00    0.72    0.09    0.13    0.15    0.17    0.17    0.00    0.38    0.05    0.06    0.07    0.09    0.11    0.00    0.34    0.04    0.07    0.08    0.09    0.06       0
 2009 199    43    3453   0.104    2661   0.080   13583       0   13583     864    1725    2593    2797    5604       0     124      20      38      61       3       4    2232     361     722    1083      22      44   11226     483     966    1449    2773    5556    0.00    0.71    0.09    0.13    0.15    0.17    0.17    0.00    0.37    0.05    0.06    0.07    0.08    0.11    0.00    0.34    0.04    0.07    0.08    0.09    0.06       0
 2009 200    44    3451   0.104    2661   0.080   13581       0   13581     863    1724    2592    2797    5604       0     123      19      37      60       3       4    2231     361     721    1083      22      44   11226     483     966    1449    2773    5556    0.00    0.70    0.09    0.13    0.15    0.17    0.17    0.00    0.36    0.05    0.06    0.07    0.08    0.10    0.00    0.34    0.04    0.07    0.08    0.09    0.06       0
 2009 201    45    3450   0.104    2660   0.080   13579       0   13579     863    1724    2591    2797    5604       0     122      19      37      60       3       4    2230     361     721    1082      22      44   11226     483     965    1449    2773    5556    0.00    0.69    0.09    0.13    0.15    0.17    0.16    0.00    0.36    0.05    0.06    0.07    0.08    0.10    0.00    0.34    0.04    0.07    0.08    0.09    0.06       0
 2009 202    46    3448   0.104    2659   0.080   13576       0   13576     862    1723    2590    2797    5604       0     121      19      37      59       3       4    2229     361     721    1082      22      44   11226     483     965    1449    2773    5556    0.00    0.69    0.09    0.13    0.14    0.17    0.16    0.00    0.35    0.04    0.06    0.07    0.08    0.10    0.00    0.34    0.04    0.07    0.08    0.09    0.06       0
 2009 203    47    3447   0.104    2658   0.080   13574       0   13574     862    1722    2589    2797    5603       0     120      19      36      59       3       4    2228     361     720    1081      22      44   11225     483     965    1449    2773    5556    0.00    0.68    0.09    0.13    0.14    0.17    0.16    0.00    0.35    0.04    0.06    0.07    0.08    0.09    0.00    0.34    0.04    0.07    0.08    0.09    0.06       0
 2009 204    48    3446   0.104    2658   0.080   13572       0   13572     862    1721    2588    2797    5603       0     119      19      36      58       3       4    2228     361     720    1081      22      44   11225     483     965    1449    2773    5556    0.00    0.68    0.08    0.13    0.14    0.17    0.16    0.00    0.34    0.04    0.06    0.07    0.08    0.09    0.00    0.34    0.04    0.07    0.08    0.09    0.06       0
 2009 205    49    3445   0.104    2657   0.080   13570       0   13570     862    1721    2587    2797    5603       0     118      19      35      58       3       4    2227     361     720    1080      22      44   11225     483     965    1449    2773    5556    0.00    0.68    0.08    0.13    0.14    0.17    0.16    0.00    0.34    0.04    0.06    0.07    0.08    0.09    0.00    0.34    0.04    0.07    0.08    0.09    0.06       0
 2009 206    50    3443   0.104    2656   0.080   13568       0   13568     862    1720    2586    2797    5603       0     117      19      35      57       3       4    2226     361     719    1080      22      44   11225     483     965    1449    2772    5555    0.00    0.68    0.08    0.12    0.14    0.17    0.16    0.00    0.34    0.04    0.06    0.07    0.08    0.09    0.00    0.34    0.04    0.07    0.08    0.09    0.06       0
 2009 207    51    3442   0.104    2656   0.080   13566       0   13566     862    1719    2585    2797    5603       0     116      18      35      57       3       4    2225     360     719    1080      22      44   11225     483     965    1449    2772    5555    0.00    0.68    0.09    0.12    0.14    0.17    0.15    0.00    0.34    0.04    0.06    0.07    0.09    0.09    0.00    0.34    0.04    0.07    0.08    0.09    0.06       0
 2009 208    52    3441   0.104    2655   0.080   13564       0   13564     861    1719    2584    2797    5603       0     115      18      34      56       3       4    2224     360     719    1079      22      44   11225     483     965    1449    2772    5555    0.00    0.68    0.09    0.12    0.14    0.17    0.15    0.00    0.34    0.04    0.06    0.07    0.09    0.09    0.00    0.34    0.04    0.07    0.08    0.09    0.06       0
 2009 209    53    3440   0.104    2655   0.080   13562       0   13562     861    1718    2583    2797    5603       0     114      18      34      56       3       4    2223     360     719    1079      22      44   11225     483     965    1449    2772    5555    0.00    0.68    0.08    0.12    0.14    0.17    0.15    0.00    0.34    0.04    0.05    0.07    0.09    0.09    0.00    0.34    0.04    0.07    0.08    0.09    0.06       0
 2009 210    54    3439   0.104    2654   0.080   13560       0   13560     861    1717    2583    2797    5603       0     113      18      34      55       3       4    2222     360     718    1078      22      44   11224     483     965    1449    2772    5555    0.00    0.68    0.08    0.12    0.15    0.17    0.15    0.00    0.34    0.04    0.05    0.07    0.09    0.09    0.00    0.34    0.04    0.07    0.08    0.09    0.06       0
 2009 211    55    3437   0.104    2653   0.080   13558       0   13558     860    1717    2582    2797    5603       0     112      18      33      55       3       4    2221     360     718    1078      22      44   11224     483     965    1449    2772    5555    0.00    0.68    0.08    0.12    0.15    0.18    0.15    0.00    0.34    0.04    0.05    0.07    0.09    0.09    0.00    0.34    0.04    0.07    0.08    0.09    0.06       0
 2009 212    56    3436   0.104    2653   0.080   13557       0   13557     860    1716    2581    2797    5602       0     112      18      33      55       3       4    2220     360     717    1077      22      44   11224     483     965    1449    2772    5555    0.00    0.68    0.08    0.12    0.15    0.18    0.15    0.00    0.34    0.04    0.05    0.07    0.09    0.09    0.00    0.34    0.04    0.07    0.08    0.09    0.06       0
 2009 213    57    3435   0.103    2652   0.080   13555       0   13555     860    1715    2580    2797    5602       0     111      18      33      54       3       4    2219     360     717    1077      22      44   11224     483     965    1449    2772    5555    0.00    0.68    0.08    0.12    0.15    0.18    0.16    0.00    0.35    0.04    0.05    0.07    0.09    0.09    0.00    0.34    0.04    0.07    0.08    0.09    0.06       0
 2009 214    58    3434   0.103    2652   0.080   13553       0   13553     860    1715    2580    2797    5602       0     110      18      33      54       3       4    2218     359     717    1076      22      44   11224     483     965    1449    2772    5555    0.00    0.69    0.08    0.12    0.15    0.18    0.16    0.00    0.35    0.04    0.05    0.07    0.09    0.09    0.00    0.34    0.04    0.07    0.08    0.09    0.06       0
 2009 215    59    3433   0.103    2651   0.080   13552       0   13552     859    1714    2579    2797    5602       0     110      17      32      54       3       4    2217     359     716    1076      22      44   11224     483     965    1449    2772    5555    0.00    0.69    0.08    0.12    0.15    0.18    0.16    0.00    0.35    0.04    0.05    0.07    0.09    0.10    0.00    0.34    0.04    0.07    0.08    0.09    0.06       0
 2009 216    60    3432   0.103    2651   0.080   13550       0   13550     859    1714    2578    2797    5602       0     109      17      32      54       3       4    2217     359     716    1076      22      44   11224     483     965    1449    2772    5555    0.00    0.69    0.08    0.12    0.15    0.18    0.16    0.00    0.35    0.04    0.05    0.07    0.10    0.10    0.00    0.34    0.04    0.07    0.08    0.09    0.06       0
 2009 217    61    3431   0.103    2651   0.080   13548       0   13548     859    1713    2578    2797    5602       0     108      17      32      53       3       4    2216     359     716    1075      22      44   11224     483     965    1449    2772    5555    0.00    0.69    0.08    0.12    0.15    0.18    0.16    0.00    0.35    0.04    0.05    0.07    0.10    0.10    0.00    0.34    0.04    0.07    0.08    0.09    0.06       0
 2009 218    62    3429   0.103    2650   0.080   13546       0   13546     858    1713    2577    2797    5602       0     107      17      32      53       3       4    2215     359     716    1075      22      44   11223     483     965    1449    2772    5554    0.00    0.69    0.08    0.12    0.15    0.18    0.16    0.00    0.36    0.04    0.05    0.07    0.10    0.10    0.00    0.34    0.04    0.07    0.08    0.09    0.06       0
 2009 219    63    3428   0.103    2649   0.080   13544       0   13544     858    1712    2576    2797    5602       0     107      17      31      53       3       4    2214     359     715    1074      22      44   11223     483     965    1449    2772    5554    0.00    0.69    0.08    0.12    0.15    0.18    0.16    0.00    0.36    0.04    0.05    0.07    0.10    0.10    0.00    0.34    0.04    0.07    0.08    0.09    0.06       0
 2009 220    64    3427   0.103    2649   0.080   13542       0   13542     858    1711    2575    2797    5602       0     106      16      31      52       3       4    2213     358     715    1074      22      44   11223     483     965    1449    2772    5554    0.00    0.69    0.08    0.12    0.15    0.19    0.16    0.00    0.36    0.03    0.05    0.07    0.10    0.10    0.00    0.34    0.04    0.07    0.08    0.09    0.06       0
 2009 221    65    3426   0.103    2648   0.080   13540       0   13540     857    1711    2574    2797    5602       0     105      16      31      52       3       4    2212     358     715    1073      22      44   11223     483     965    1449    2772    5554    0.00    0.70    0.08    0.12    0.15    0.19    0.16    0.00    0.36    0.04    0.05    0.07    0.10    0.10    0.00    0.34    0.04    0.07    0.08    0.09    0.06       0
 2009 222    66    3425   0.103    2648   0.080   13538       0   13538     857    1710    2573    2797    5602       0     104      16      30      52       3       4    2211     358     714    1073      22      44   11223     483     965    1449    2772    5554    0.00    0.67    0.07    0.12    0.14    0.18    0.16    0.00    0.34    0.03    0.05    0.07    0.09    0.09    0.00    0.34    0.04    0.07    0.08    0.09    0.06       0
 2009 223    67    3423   0.103    2647   0.080   13537       0   13537     857    1709    2573    2796    5601       0     104      16      30      51       3       4    2210     358     714    1072      22      44   11223     483     965    1449    2772    5554    0.00    0.65    0.07    0.11    0.14    0.17    0.15    0.00    0.32    0.03    0.05    0.06    0.09    0.09    0.00    0.33    0.04    0.07    0.07    0.09    0.06       0
 2009 224    68    3422   0.103    2647   0.080   13535       0   13535     856    1709    2572    2796    5601       0     103      16      30      51       3       4    2209     358     714    1072      22      44   11223     483     965    1449    2772    5554    0.00    0.63    0.07    0.11    0.13    0.17    0.15    0.00    0.30    0.03    0.04    0.06    0.08    0.08    0.00    0.33    0.04    0.07    0.07    0.09    0.06       0
 2009 225    69    3421   0.103    2646   0.080   13533       0   13533     856    1708    2571    2796    5601       0     102      16      30      51       3       4    2207     358     713    1071      22      44   11222     483     965    1449    2772    5554    0.00    0.61    0.07    0.11    0.13    0.16    0.14    0.00    0.28    0.03    0.04    0.06    0.08    0.08    0.00    0.33    0.04    0.07    0.07    0.09    0.06       0
 2009 226    70    3420   0.103    2645   0.080   13531       0   13531     856    1708    2570    2796    5601       0     101      15      29      51       3       4    2206     358     713    1070      22      44   11222     483     965    1449    2772    5554    0.00    0.59    0.07    0.10    0.13    0.16    0.13    0.00    0.26    0.03    0.04    0.05    0.07    0.07    0.00    0.33    0.04    0.07    0.07    0.09    0.06       0
 2009 227    71    3418   0.103    2645   0.080   13529       0   13529     855    1707    2569    2796    5601       0     101      15      29      50       3       4    2205     357     712    1070      22      44   11222     483     965    1449    2772    5554    0.00    0.57    0.06    0.10    0.12    0.15    0.13    0.00    0.24    0.02    0.04    0.05    0.07    0.07    0.00    0.33    0.04    0.07    0.07    0.09    0.06       0
 2009 228    72    3417   0.103    2644   0.080   13527       0   13527     855    1706    2568    2796    5601       0     100      15      29      50       3       4    2204     357     712    1069      22      44   11222     483     965    1449    2772    5554    0.00    0.55    0.06    0.10    0.12    0.15    0.12    0.00    0.22    0.02    0.03    0.05    0.06    0.06    0.00    0.33    0.04    0.07    0.07    0.09    0.06       0
 2009 229    73    3416   0.103    2644   0.080   13525       0   13525     855    1706    2567    2796    5601       0      99      15      28      50       3       4    2203     357     712    1069      22      44   11222     483     965    1449    2772    5554    0.00    0.53    0.06    0.10    0.12    0.14    0.12    0.00    0.21    0.02    0.03    0.04    0.06    0.06    0.00    0.33    0.04    0.07    0.07    0.08    0.06       0
 2009 230    74    3415   0.103    2643   0.080   13523       0   13523     854    1705    2567    2796    5601       0      98      15      28      49       3       4    2202     357     711    1068      22      44   11222     483     965    1449    2772    5553    0.00    0.52    0.06    0.09    0.11    0.14    0.12    0.00    0.20    0.02    0.03    0.04    0.05    0.05    0.00    0.32    0.04    0.06    0.07    0.08    0.06       0
 2009 231    75    3414   0.103    2643   0.080   13521       0   13521     854    1704    2566    2796    5601       0      98      15      28      49       3       4    2201     357     711    1068      22      44   11222     483     965    1449    2771    5553    0.00    0.51    0.06    0.09    0.11    0.13    0.11    0.00    0.18    0.02    0.03    0.04    0.05    0.05    0.00    0.32    0.04    0.06    0.07    0.08    0.06       0
 2009 232    76    3412   0.103    2642   0.080   13519       0   13519     854    1704    2565    2796    5601       0      97      14      28      49       3       4    2200     357     711    1067      22      44   11222     483     965    1449    2771    5553    0.00    0.49    0.06    0.09    0.11    0.13    0.11    0.00    0.17    0.02    0.03    0.03    0.05    0.05    0.00    0.32    0.04    0.06    0.07    0.08    0.06       0
 2009 233    77    3411   0.103    2641   0.080   13517       0   13517     853    1703    2564    2796    5600       0      97      14      27      49       3       4    2199     356     710    1067      22      44   11221     482     965    1449    2771    5553    0.00    0.48    0.06    0.09    0.10    0.13    0.11    0.00    0.16    0.02    0.02    0.03    0.04    0.04    0.00    0.32    0.04    0.06    0.07    0.08    0.06       0
 2009 234    78    3410   0.103    2641   0.080   13515       0   13515     853    1703    2564    2796    5600       0      96      14      27      48       3       4    2198     356     710    1066      22      44   11221     482     965    1449    2771    5553    0.00    0.47    0.06    0.09    0.10    0.12    0.10    0.00    0.15    0.02    0.02    0.03    0.04    0.04    0.00    0.32    0.04    0.06    0.07    0.08    0.06       0
 2009 235    79    3409   0.103    2640   0.080   13514       0   13514     853    1702    2563    2796    5600       0      95      14      27      48       3       4    2197     356     710    1066      22      43   11221     482     965    1449    2771    5553    0.00    0.46    0.05    0.08    0.10    0.12    0.10    0.00    0.14    0.01    0.02    0.03    0.04    0.04    0.00    0.32    0.04    0.06    0.07    0.08    0.06       0
 2009 236    80    3408   0.103    2640   0.080   13512       0   13512     852    1702    2562    2796    5600       0      95      14      27      48       3       4    2196     356     709    1065      22      43   11221     482     965    1449    2771    5553    0.00    0.45    0.05    0.08    0.10    0.12    0.10    0.00    0.13    0.01    0.02    0.03    0.04    0.04    0.00    0.32    0.04    0.06    0.07    0.08    0.06       0
 2009 237    81    3407   0.103    2639   0.079   13510       0   13510     852    1701    2561    2796    5600       0      94      14      27      47       3       4    2195     356     709    1065      22      43   11221     482     965    1449    2771    5553    0.00    0.44    0.05    0.08    0.10    0.12    0.09    0.00    0.12    0.01    0.02    0.02    0.03    0.03    0.00    0.32    0.04    0.06    0.07    0.08    0.06       0
 2009 238    82    3405   0.103    2639   0.079   13508       0   13508     852    1700    2560    2796    5600       0      93      14      26      47       3       4    2194     356     709    1064      22      43   11221     482     965    1449    2771    5553    0.00    0.43    0.05    0.08    0.09    0.11    0.09    0.00    0.12    0.01    0.02    0.02    0.03    0.03    0.00    0.31    0.04    0.06    0.07    0.08    0.06       0
 2009 239    83    3404   0.103    2638   0.079   13506       0   13506     851    1700    2559    2796    5600       0      92      13      26      47       3       4    2193     355     708    1064      22      43   11221     482     965    1449    2771    5553    0.00    0.42    0.05    0.08    0.09    0.11    0.09    0.00    0.11    0.01    0.02    0.02    0.03    0.03    0.00    0.31    0.04    0.06    0.07    0.08    0.06       0
 2009 240    84    3403   0.102    2637   0.079   13504       0   13504     851    1699    2558    2796    5600       0      92      13      26      46       3       4    2192     355     708    1063      22      43   11220     482     965    1449    2771    5553    0.00    0.41    0.05    0.08    0.09    0.11    0.09    0.00    0.10    0.01    0.02    0.02    0.03    0.03    0.00    0.31    0.04    0.06    0.07    0.08    0.06       0
 2009 241    85    3402   0.102    2637   0.079   13502       0   13502     851    1699    2558    2796    5600       0      91      13      26      46       3       4    2190     355     708    1062      22      43   11220     482     965    1449    2771    5553    0.00    0.41    0.05    0.08    0.09    0.11    0.09    0.00    0.09    0.01    0.01    0.02    0.03    0.03    0.00    0.31    0.04    0.06    0.07    0.08    0.06       0
 2009 242    86    3401   0.102    2636   0.079   13500       0   13500     851    1698    2557    2795    5600       0      90      13      25      46       3       4    2189     355     707    1062      22      43   11220     482     965    1449    2771    5552    0.00    0.40    0.05    0.07    0.09    0.10    0.08    0.00    0.09    0.01    0.01    0.02    0.02    0.02    0.00    0.31    0.04    0.06    0.07    0.08    0.06       0
 2009 243    87    3400   0.102    2636   0.079   13498       0   13498     850    1697    2556    2795    5599       0      90      13      25      46       3       4    2188     355     707    1061      22      43   11220     482     965    1449    2771    5552    0.00    0.39    0.05    0.07    0.09    0.10    0.08    0.00    0.08    0.01    0.01    0.02    0.02    0.02    0.00    0.31    0.04    0.06    0.07    0.08    0.06       0
 2009 244    88    3398   0.102    2635   0.079   13497       0   13497     850    1697    2555    2795    5599       0      89      13      25      45       3       4    2187     355     706    1061      22      43   11220     482     965    1449    2771    5552    0.00    0.38    0.05    0.07    0.08    0.10    0.08    0.00    0.08    0.01    0.01    0.02    0.02    0.02    0.00    0.31    0.04    0.06    0.07    0.08    0.06       0
 2009 245    89    3397   0.102    2635   0.079   13495       0   13495     850    1696    2554    2795    5599       0      89      13      25      45       3       4    2186     355     706    1060      22      43   11220     482     965    1449    2771    5552    0.00    0.38    0.05    0.07    0.08    0.10    0.08    0.00    0.07    0.01    0.01    0.01    0.02    0.02    0.00    0.31    0.04    0.06    0.07    0.08    0.06       0
 2009 246    90    3396   0.102    2634   0.079   13493       0   13493     850    1696    2553    2795    5599       0      88      13      25      45       3       4    2185     354     706    1060      22      43   11220     482     965    1449    2771    5552    0.00    0.37    0.05    0.07    0.08    0.10    0.08    0.00    0.07    0.01    0.01    0.01    0.02    0.02    0.00    0.30    0.04    0.06    0.07    0.08    0.06       0
 2009 247    91    3395   0.102    2633   0.079   13491       0   13491     849    1695    2553    2795    5599       0      87      13      24      44       3       4    2184     354     705    1059      22      43   11219     482     965    1449    2771    5552    0.00    0.37    0.04    0.07    0.08    0.10    0.08    0.00    0.06    0.01    0.01    0.01    0.02    0.02    0.00    0.30    0.04    0.06    0.07    0.08    0.06       0
 2009 248    92    3394   0.102    2633   0.079   13489       0   13489     849    1695    2552    2795    5599       0      87      12      24      44       3       4    2183     354     705    1059      22      43   11219     482     965    1449    2771    5552    0.00    0.36    0.04    0.07    0.08    0.09    0.07    0.00    0.06    0.01    0.01    0.01    0.02    0.02    0.00    0.30    0.04    0.06    0.07    0.08    0.06       0
 2009 249    93    3393   0.102    2632   0.079   13488       0   13488     849    1694    2551    2795    5599       0      86      12      24      44       3       4    2182     354     705    1058      22      43   11219     482     965    1449    2771    5552    0.00    0.36    0.04    0.07    0.08    0.09    0.07    0.00    0.06    0.01    0.01    0.01    0.02    0.02    0.00    0.30    0.04    0.06    0.07    0.08    0.06       0
 2009 250    94    3392   0.102    2632   0.079   13486       0   13486     848    1694    2550    2795    5599       0      86      12      24      43       2       4    2181     354     705    1058      22      43   11219     482     965    1449    2771    5552    0.00    0.35    0.04    0.07    0.08    0.09    0.07    0.00    0.05    0.01    0.01    0.01    0.01    0.01    0.00    0.30    0.04    0.06    0.07    0.08    0.06       0
 2009 251    95    3391   0.102    2631   0.079   13485       0   13485     848    1693    2549    2795    5599       0      85      12      24      43       2       4    2180     354     704    1057      22      43   11219     482     965    1449    2771    5552    0.00    0.35    0.04    0.07    0.08    0.09    0.07    0.00    0.05    0.01    0.01    0.01    0.01    0.01    0.00    0.30    0.04    0.06    0.07    0.08    0.06       0
 2009 252    96    3390   0.102    2631   0.079   13483       0   13483     848    1693    2549    2795    5599       0      84      12      23      43       2       4    2179     353     704    1057      22      43   11219     482     965    1449    2771    5552    0.00    0.37    0.04    0.07    0.08    0.10    0.08    0.00    0.07    0.01    0.01    0.01    0.02    0.02    0.00    0.30    0.04    0.06    0.07    0.08    0.06       0
 2009 253    97    3389   0.102    2630   0.079   13481       0   13481     848    1692    2548    2795    5599       0      84      12      23      42       2       4    2178     353     704    1056      22      43   11219     482     965    1449    2771    5552    0.00    0.41    0.05    0.07    0.09    0.11    0.09    0.00    0.11    0.01    0.01    0.02    0.03    0.03    0.00    0.30    0.04    0.06    0.07    0.08    0.06       0
 2009 254    98    3388   0.102    2629   0.079   13479       0   13479     847    1692    2547    2795    5599       0      83      12      23      42       2       4    2177     353     703    1056      22      43   11219     482     965    1449    2771    5552    0.00    0.44    0.05    0.08    0.09    0.12    0.11    0.00    0.14    0.01    0.02    0.03    0.04    0.05    0.00    0.30    0.04    0.06    0.07    0.08    0.06       0
 2009 255    99    3387   0.102    2629   0.079   13478       0   13478     847    1691    2546    2795    5598       0      83      12      23      42       2       4    2176     353     703    1055      22      43   11218     482     965    1449    2770    5551    0.00    0.48    0.05    0.08    0.10    0.13    0.12    0.00    0.17    0.01    0.02    0.03    0.05    0.06    0.00    0.30    0.04    0.06    0.07    0.08    0.06       0
 2009 256   100    3386   0.102    2628   0.079   13476       0   13476     847    1691    2545    2795    5598       0      82      12      23      42       2       4    2175     353     703    1055      22      43   11218     482     965    1449    2770    5551    0.00    0.50    0.05    0.08    0.10    0.14    0.13    0.00    0.20    0.01    0.02    0.04    0.06    0.07    0.00    0.31    0.04    0.06    0.07    0.08    0.06       0
 2009 257   101    3385   0.102    2628   0.079   13474       0   13474     847    1690    2544    2795    5598       0      82      12      23      41       2       4    2174     353     702    1054      22      43   11218     482     965    1449    2770    5551    0.00    0.49    0.05    0.08    0.10    0.13    0.13    0.00    0.19    0.01    0.02    0.03    0.05    0.07    0.00    0.30    0.04    0.06    0.07    0.08    0.06       0
 2009 258   102    3384   0.102    2627   0.079   13472       0   13472     846    1690    2543    2795    5598       0      81      11      22      41       2       4    2173     352     702    1054      22      43   11218     482     965    1449    2770    5551    0.00    0.48    0.05    0.08    0.10    0.13    0.12    0.00    0.17    0.01    0.02    0.03    0.05    0.06    0.00    0.30    0.04    0.06    0.07    0.08    0.06       0
 2009 259   103    3383   0.102    2627   0.079   13471       0   13471     846    1689    2543    2795    5598       0      80      11      22      41       2       4    2172     352     702    1053      22      43   11218     482     965    1449    2770    5551    0.00    0.47    0.05    0.08    0.10    0.12    0.12    0.00    0.16    0.01    0.02    0.03    0.05    0.06    0.00    0.30    0.04    0.06    0.07    0.08    0.06       0
 2009 260   104    3382   0.102    2626   0.079   13469       0   13469     846    1689    2542    2795    5598       0      80      11      22      40       2       4    2171     352     701    1053      22      43   11218     482     965    1449    2770    5551    0.00    0.45    0.05    0.08    0.09    0.12    0.11    0.00    0.15    0.01    0.02    0.03    0.04    0.05    0.00    0.30    0.04    0.06    0.07    0.08    0.06       0
 2009 261   105    3380   0.102    2625   0.079   13467       0   13467     846    1688    2541    2795    5598       0      79      11      22      40       2       4    2170     352     701    1052      22      43   11217     482     965    1449    2770    5551    0.00    0.44    0.05    0.08    0.09    0.12    0.11    0.00    0.14    0.01    0.02    0.03    0.04    0.05    0.00    0.30    0.04    0.06    0.07    0.08    0.06       0
 2009 262   106    3379   0.102    2625   0.079   13465       0   13465     845    1687    2540    2794    5598       0      79      11      22      40       2       4    2169     352     700    1052      22      43   11217     482     965    1449    2770    5551    0.00    0.43    0.05    0.07    0.09    0.12    0.11    0.00    0.13    0.01    0.02    0.02    0.04    0.05    0.00    0.30    0.04    0.06    0.07    0.08    0.06       0
 2009 263   107    3378   0.102    2624   0.079   13463       0   13463     845    1687    2539    2794    5598       0      78      11      22      39       2       4    2167     352     700    1051      22      43   11217     482     965    1449    2770    5551    0.00    0.42    0.04    0.07    0.09    0.11    0.10    0.00    0.12    0.01    0.01    0.02    0.04    0.04    0.00    0.30    0.04    0.06    0.07    0.08    0.06       0
 2009 264   108    3377   0.102    2623   0.079   13461       0   13461     845    1686    2538    2794    5598       0      78      11      21      39       2       4    2166     351     700    1050      22      43   11217     482     965    1449    2770    5551    0.00    0.41    0.04    0.07    0.09    0.11    0.10    0.00    0.12    0.01    0.01    0.02    0.03    0.04    0.00    0.30    0.04    0.06    0.07    0.08    0.06       0
 2009 265   109    3376   0.102    2623   0.079   13460       0   13460     845    1686    2537    2794    5598       0      77      11      21      39       2       4    2165     351     699    1050      22      43   11217     482     965    1449    2770    5551    0.00    0.40    0.04    0.07    0.08    0.11    0.10    0.00    0.11    0.01    0.01    0.02    0.03    0.04    0.00    0.29    0.04    0.06    0.07    0.08    0.06       0
 2009 266   110    3375   0.102    2622   0.079   13458       0   13458     844    1685    2536    2794    5597       0      77      11      21      38       2       4    2164     351     699    1049      22      43   11217     482     965    1449    2770    5550    0.00    0.39    0.04    0.07    0.08    0.10    0.09    0.00    0.10    0.01    0.01    0.02    0.03    0.04    0.00    0.29    0.04    0.06    0.06    0.08    0.06       0
 2009 267   111    3374   0.102    2622   0.079   13456       0   13456     844    1685    2536    2794    5597       0      76      11      21      38       2       4    2163     351     699    1049      22      43   11217     482     965    1449    2770    5550    0.00    0.39    0.04    0.07    0.08    0.10    0.09    0.00    0.10    0.01    0.01    0.02    0.03    0.03    0.00    0.29    0.04    0.06    0.06    0.08    0.06       0
 2009 268   112    3373   0.102    2621   0.079   13454       0   13454     844    1684    2535    2794    5597       0      76      11      21      38       2       4    2162     351     698    1048      22      43   11216     482     965    1449    2770    5550    0.00    0.38    0.04    0.07    0.08    0.10    0.09    0.00    0.09    0.01    0.01    0.02    0.02    0.03    0.00    0.29    0.04    0.06    0.06    0.08    0.06       0
 2009 269   113    3372   0.102    2621   0.079   13453       0   13453     843    1684    2534    2794    5597       0      75      11      21      38       2       4    2161     351     698    1048      22      43   11216     482     965    1449    2770    5550    0.00    0.37    0.04    0.07    0.08    0.10    0.09    0.00    0.08    0.01    0.01    0.01    0.02    0.03    0.00    0.29    0.04    0.06    0.06    0.08    0.06       0
 2009 270   114    3371   0.102    2620   0.079   13451       0   13451     843    1683    2533    2794    5597       0      75      10      21      37       2       4    2160     350     697    1047      22      43   11216     482     965    1449    2770    5550    0.00    0.37    0.04    0.07    0.08    0.10    0.08    0.00    0.08    0.01    0.01    0.01    0.02    0.03    0.00    0.29    0.04    0.06    0.06    0.07    0.06       0
 2009 271   115    3370   0.101    2619   0.079   13449       0   13449     843    1683    2532    2794    5597       0      74      10      20      37       2       4    2158     350     697    1046      22      43   11216     482     965    1449    2770    5550    0.00    0.36    0.04    0.07    0.08    0.09    0.08    0.00    0.07    0.01    0.01    0.01    0.02    0.03    0.00    0.29    0.04    0.06    0.06    0.07    0.06       0
 2009 272   116    3368   0.101    2619   0.079   13447       0   13447     843    1682    2531    2794    5597       0      74      10      20      37       2       4    2157     350     697    1046      22      43   11216     482     965    1449    2770    5550    0.00    0.35    0.04    0.06    0.08    0.09    0.08    0.00    0.07    0.00    0.01    0.01    0.02    0.02    0.00    0.29    0.03    0.06    0.06    0.07    0.06       0
 2009 273   117    3367   0.101    2618   0.079   13445       0   13445     842    1682    2530    2794    5597       0      73      10      20      36       2       4    2156     350     696    1045      22      43   11216     482     965    1449    2770    5550    0.00    0.35    0.04    0.06    0.07    0.09    0.08    0.00    0.06    0.00    0.01    0.01    0.02    0.02    0.00    0.28    0.03    0.06    0.06    0.07    0.06       0
 2009 274   118    3366   0.101    2618   0.079   13443       0   13443     842    1681    2529    2794    5597       0      73      10      20      36       2       4    2155     350     696    1045      22      43   11216     482     965    1449    2770    5550    0.00    0.34    0.04    0.06    0.07    0.09    0.08    0.00    0.06    0.00    0.01    0.01    0.02    0.02    0.00    0.28    0.03    0.06    0.06    0.07    0.06       0
 2009 275   119    3365   0.101    2617   0.079   13441       0   13441     842    1681    2529    2794    5597       0      72      10      20      36       2       4    2153     349     695    1044      22      43   11215     482     965    1449    2770    5550    0.00    0.34    0.04    0.06    0.07    0.09    0.07    0.00    0.05    0.00    0.01    0.01    0.01    0.02    0.00    0.28    0.03    0.06    0.06    0.07    0.06       0
 2009 276   120    3364   0.101    2616   0.079   13440       0   13440     842    1680    2528    2794    5596       0      72      10      20      36       2       4    2152     349     695    1043      22      43   11215     482     965    1449    2770    5550    0.00    0.33    0.04    0.06    0.07    0.09    0.07    0.00    0.05    0.00    0.01    0.01    0.01    0.02    0.00    0.28    0.03    0.06    0.06    0.07    0.06       0
 2009 277   121    3363   0.101    2616   0.079   13438       0   13438     841    1679    2527    2794    5596       0      71      10      20      36       2       4    2151     349     695    1043      22      43   11215     482     965    1449    2770    5549    0.00    0.33    0.04    0.06    0.07    0.09    0.07    0.00    0.05    0.00    0.01    0.01    0.01    0.02    0.00    0.28    0.03    0.05    0.06    0.07    0.06       0
 2009 278   122    3362   0.101    2615   0.079   13436       0   13436     841    1679    2526    2794    5596       0      71      10      20      35       2       4    2150     349     694    1042      22      43   11215     482     965    1449    2769    5549    0.00    0.32    0.04    0.06    0.07    0.08    0.07    0.00    0.04    0.00    0.01    0.01    0.01    0.02    0.00    0.28    0.03    0.05    0.06    0.07    0.06       0
 2009 279   123    3361   0.101    2615   0.079   13435       0   13435     841    1678    2526    2793    5596       0      71      10      19      35       2       4    2149     349     694    1042      22      43   11215     482     965    1449    2769    5549    0.00    0.32    0.04    0.06    0.07    0.08    0.07    0.00    0.04    0.00    0.00    0.01    0.01    0.01    0.00    0.28    0.03    0.05    0.06    0.07    0.06       0
 2009 280   124    3360   0.101    2614   0.079   13433       0   13433     841    1678    2525    2793    5596       0      70      10      19      35       2       4    2147     348     693    1041      22      43   11215     482     965    1449    2769    5549    0.00    0.31    0.04    0.06    0.07    0.08    0.07    0.00    0.04    0.00    0.00    0.01    0.01    0.01    0.00    0.28    0.03    0.05    0.06    0.07    0.05       0
 2009 281   125    3359   0.101    2614   0.079   13431       0   13431     840    1677    2524    2793    5596       0      70      10      19      35       2       4    2146     348     693    1040      22      43   11215     482     965    1449    2769    5549    0.00    0.31    0.04    0.06    0.07    0.08    0.07    0.00    0.04    0.00    0.00    0.01    0.01    0.01    0.00    0.27    0.03    0.05    0.06    0.07    0.05       0
 2009 282   126    3358   0.101    2613   0.079   13429       0   13429     840    1677    2523    2793    5596       0      70      10      19      35       2       4    2145     348     693    1040      22      43   11214     482     965    1448    2769    5549    0.00    0.31    0.04    0.06    0.07    0.08    0.07    0.00    0.03    0.00    0.00    0.01    0.01    0.01    0.00    0.27    0.03    0.05    0.06    0.07    0.05       0
 2009 283   127    3357   0.101    2613   0.079   13428       0   13428     840    1676    2522    2793    5596       0      70      10      19      35       2       4    2144     348     692    1039      22      43   11214     482     965    1448    2769    5549    0.00    0.30    0.04    0.06    0.07    0.08    0.06    0.00    0.03    0.00    0.00    0.01    0.01    0.01    0.00    0.27    0.03    0.05    0.06    0.07    0.05       0
 2009 284   128    3356   0.101    2612   0.079   13426       0   13426     840    1676    2522    2793    5596       0      69       9      19      35       2       4    2142     348     692    1039      22      43   11214     482     965    1448    2769    5549    0.00    0.30    0.04    0.06    0.06    0.08    0.06    0.00    0.03    0.00    0.00    0.01    0.01    0.01    0.00    0.27    0.03    0.05    0.06    0.07    0.05       0
 2009 285   129    3355   0.101    2612   0.079   13424       0   13424     839    1675    2521    2793    5596       0      69       9      19      34       2       4    2141     348     691    1038      22      43   11214     482     965    1448    2769    5549    0.00    0.30    0.04    0.06    0.06    0.08    0.06    0.00    0.03    0.00    0.00    0.00    0.01    0.01    0.00    0.27    0.03    0.05    0.06    0.07    0.05       0
 2009 286   130    3354   0.101    2611   0.079   13423       0   13423     839    1675    2520    2793    5595       0      69       9      19      34       2       4    2140     347     691    1037      22      43   11214     482     965    1448    2769    5549    0.00    0.29    0.03    0.06    0.06    0.08    0.06    0.00    0.03    0.00    0.00    0.00    0.01    0.01    0.00    0.27    0.03    0.05    0.06    0.07    0.05       0
 2009 287   131    3353   0.101    2611   0.079   13422       0   13422     839    1674    2520    2793    5595       0      69       9      19      34       2       4    2139     347     691    1037      22      43   11214     482     965    1448    2769    5549    0.00    0.29    0.03    0.06    0.06    0.08    0.06    0.00    0.02    0.00    0.00    0.00    0.01    0.01    0.00    0.27    0.03    0.05    0.06    0.07    0.05       0
 2009 288   132    3353   0.101    2610   0.079   13420       0   13420     839    1674    2519    2793    5595       0      68       9      19      34       2       4    2138     347     690    1036      22      43   11214     482     965    1448    2769    5549    0.00    0.29    0.03    0.05    0.06    0.08    0.06    0.00    0.02    0.00    0.00    0.00    0.01    0.01    0.00    0.27    0.03    0.05    0.06    0.07    0.05       0
 2009 289   133    3352   0.101    2610   0.079   13419       0   13419     839    1674    2518    2793    5595       0      68       9      19      34       2       4    2137     347     690    1036      22      43   11213     482     965    1448    2769    5548    0.00    0.29    0.03    0.05    0.06    0.07    0.06    0.00    0.02    0.00    0.00    0.00    0.01    0.01    0.00    0.27    0.03    0.05    0.06    0.07    0.05       0
 2009 290   134    3351   0.101    2609   0.079   13418       0   13418     839    1673    2518    2793    5595       0      68       9      19      34       2       4    2136     347     689    1035      22      43   11213     482     965    1448    2769    5548    0.00    0.28    0.03    0.05    0.06    0.07    0.06    0.00    0.02    0.00    0.00    0.00    0.01    0.01    0.00    0.26    0.03    0.05    0.06    0.07    0.05       0
 2009 291   135    3350   0.101    2609   0.079   13417       0   13417     839    1673    2517    2793    5595       0      68       9      19      34       2       4    2135     347     689    1035      22      43   11213     482     965    1448    2769    5548    0.00    0.28    0.03    0.05    0.06    0.07    0.06    0.00    0.02    0.00    0.00    0.00    0.01    0.01    0.00    0.26    0.03    0.05    0.06    0.07    0.05       0
 2009 292   136    3350   0.101    2609   0.079   13415       0   13415     839    1672    2517    2793    5595       0      68       9      18      34       2       4    2134     347     689    1034      22      43   11213     482     965    1448    2769    5548    0.00    0.28    0.03    0.05    0.06    0.07    0.06    0.00    0.02    0.00    0.00    0.00    0.00    0.01    0.00    0.26    0.03    0.05    0.06    0.07    0.05       0
 2009 293   137    3349   0.101    2608   0.079   13414       0   13414     839    1672    2516    2793    5595       0      68       9      18      34       2       4    2133     347     688    1034      22      43   11213     482     965    1448    2769    5548    0.00    0.28    0.03    0.05    0.06    0.07    0.06    0.00    0.02    0.00    0.00    0.00    0.00    0.01    0.00    0.26    0.03    0.05    0.06    0.07    0.05       0
 2009 294   138    3349   0.101    2608   0.079   13413       0   13413     839    1672    2516    2793    5595       0      68       9      18      34       2       4    2132     347     688    1033      21      43   11213     482     965    1448    2769    5548    0.00    0.28    0.03    0.05    0.06    0.07    0.06    0.00    0.02    0.00    0.00    0.00    0.00    0.01    0.00    0.26    0.03    0.05    0.06    0.07    0.05       0
 2009 295   139    3348   0.101    2607   0.079   13412       0   13412     838    1671    2515    2793    5595       0      68       9      18      34       2       4    2131     347     688    1032      21      43   11213     482     965    1448    2769    5548    0.00    0.27    0.03    0.05    0.06    0.07    0.06    0.00    0.01    0.00    0.00    0.00    0.00    0.01    0.00    0.26    0.03    0.05    0.06    0.07    0.05       0
 2009 296   140    3347   0.101    2607   0.079   13410       0   13410     838    1671    2514    2793    5595       0      67       9      18      34       2       4    2130     347     687    1032      21      43   11212     482     965    1448    2769    5548    0.00    0.27    0.03    0.05    0.06    0.07    0.06    0.00    0.01    0.00    0.00    0.00    0.00    0.00    0.00    0.26    0.03    0.05    0.06    0.07    0.05       0
 2009 297   141    3346   0.101    2606   0.079   13408       0   13408     838    1670    2513    2792    5594       0      67       9      18      34       2       4    2128     346     687    1031      21      43   11212     482     965    1448    2769    5548    0.00    0.27    0.03    0.05    0.06    0.07    0.06    0.00    0.01    0.00    0.00    0.00    0.00    0.00    0.00    0.26    0.03    0.05    0.06    0.07    0.05       0
 2009 298   142    3345   0.101    2606   0.078   13407       0   13407     838    1670    2513    2792    5594       0      67       9      18      34       2       4    2127     346     687    1031      21      43   11212     482     965    1448    2769    5548    0.00    0.27    0.03    0.05    0.06    0.07    0.06    0.00    0.01    0.00    0.00    0.00    0.00    0.00    0.00    0.26    0.03    0.05    0.06    0.07    0.05       0
 2009 299   143    3344   0.101    2605   0.078   13405       0   13405     837    1669    2512    2792    5594       0      67       9      18      34       2       4    2126     346     686    1030      21      43   11212     482     965    1448    2769    5548    0.00    0.27    0.03    0.05    0.06    0.07    0.05    0.00    0.01    0.00    0.00    0.00    0.00    0.00    0.00    0.25    0.03    0.05    0.06    0.07    0.05       0
 2009 300   144    3343   0.101    2605   0.078   13403       0   13403     837    1669    2511    2792    5594       0      66       9      18      33       2       4    2125     346     686    1029      21      43   11212     482     965    1448    2769    5548    0.00    0.26    0.03    0.05    0.06    0.07    0.05    0.00    0.01    0.00    0.00    0.00    0.00    0.00    0.00    0.25    0.03    0.05    0.06    0.07    0.05       0
 2009 301   145    3342   0.101    2604   0.078   13402       0   13402     837    1668    2510    2792    5594       0      66       9      18      33       2       4    2124     346     685    1029      21      43   11212     482     965    1448    2769    5548    0.00    0.26    0.03    0.05    0.06    0.07    0.05    0.00    0.01    0.00    0.00    0.00    0.00    0.00    0.00    0.25    0.03    0.05    0.06    0.07    0.05       0
 2009 302   146    3341   0.101    2604   0.078   13400       0   13400     837    1668    2510    2792    5594       0      66       9      18      33       2       4    2122     345     685    1028      21      43   11212     482     965    1448    2768    5547    0.00    0.26    0.03    0.05    0.06    0.07    0.05    0.00    0.01    0.00    0.00    0.00    0.00    0.00    0.00    0.25    0.03    0.05    0.06    0.07    0.05       0
 2009 303   147    3340   0.101    2603   0.078   13398       0   13398     836    1667    2509    2792    5594       0      66       9      18      33       2       4    2121     345     684    1027      21      42   11211     482     965    1448    2768    5547    0.00    0.26    0.03    0.05    0.06    0.07    0.05    0.00    0.01    0.00    0.00    0.00    0.00    0.00    0.00    0.25    0.03    0.05    0.06    0.06    0.05       0
 2009 304   148    3339   0.101    2603   0.078   13397       0   13397     836    1667    2508    2792    5594       0      66       9      18      33       2       4    2120     345     684    1027      21      42   11211     482     965    1448    2768    5547    0.00    0.26    0.03    0.05    0.06    0.07    0.05    0.00    0.01    0.00    0.00    0.00    0.00    0.00    0.00    0.25    0.03    0.05    0.05    0.06    0.05       0
 2009 305   149    3338   0.101    2602   0.078   13396       0   13396     836    1666    2508    2792    5594       0      65       9      18      33       2       4    2119     345     684    1026      21      42   11211     482     965    1448    2768    5547    0.00    0.26    0.03    0.05    0.06    0.07    0.05    0.00    0.01    0.00    0.00    0.00    0.00    0.00    0.00    0.25    0.03    0.05    0.05    0.06    0.05       0
 2009 306   150    3337   0.101    2602   0.078   13394       0   13394     836    1666    2507    2792    5594       0      65       9      17      33       2       4    2118     345     683    1026      21      42   11211     482     965    1448    2768    5547    0.00    0.25    0.03    0.05    0.06    0.07    0.05    0.00    0.01    0.00    0.00    0.00    0.00    0.00    0.00    0.25    0.03    0.05    0.05    0.06    0.05       0
 2009 307   151    3336   0.100    2601   0.078   13393       0   13393     836    1665    2506    2792    5593       0      65       9      17      33       2       4    2117     345     683    1025      21      42   11211     482     965    1448    2768    5547    0.00    0.25    0.03    0.05    0.06    0.07    0.05    0.00    0.01    0.00    0.00    0.00    0.00    0.00    0.00    0.25    0.03    0.05    0.05    0.06    0.05       0
 2009 308   152    3336   0.100    2601   0.078   13391       0   13391     835    1665    2506    2792    5593       0      65       9      17      33       2       4    2116     344     683    1025      21      42   11211     482     965    1448    2768    5547    0.00    0.25    0.03    0.05    0.05    0.07    0.05    0.00    0.01    0.00    0.00    0.00    0.00    0.00    0.00    0.25    0.03    0.05    0.05    0.06    0.05       0
